/*---------------------------------------------------------------------------*\
| =========                 |                                                 |
| \\      /  F ield         | OpenFOAM: The Open Source CFD Toolbox           |
|  \\    /   O peration     | Version:  2312                                  |
|   \\  /    A nd           | Website:  www.openfoam.com                      |
|    \\/     M anipulation  |                                                 |
\*---------------------------------------------------------------------------*/
Build  : 39362aec25-20240625 OPENFOAM=2312 patch=240625 version=v2312
Arch   : "LSB;label=32;scalar=64"
Exec   : interFoam
Date   : Apr 30 2026
Time   : 16:52:49
Host   : Colms-MacBook-Pro.local
PID    : 33705
I/O    : uncollated
Case   : /Users/colmmcalister/OpenFOAM/colmmcalister-v2312/run/moorFV/src/beamFoam/tutorials/rigidBodyAndBeam
nProcs : 1
trapFpe: Floating point exception trapping enabled (FOAM_SIGFPE).
fileModificationChecking : Monitoring run-time modified files using timeStampMaster (fileModificationSkew 5, maxFileModificationPolls 20)
allowSystemOperations : Allowing user-supplied system call operations

// * * * * * * * * * * * * * * * * * * * * * * * * * * * * * * * * * * * * * //
Create time

Create mesh for time = 0

Selecting dynamicFvMesh dynamicMotionSolverFvMesh
Selecting motion solver: sixDoFRigidBodyMotionFvBeam
Applying motion to entire mesh
Selecting sixDoFFvBeamSolver FvBeamNewmark
Selecting beamModel coupledTotalLagNewtonRaphsonBeam
Selecting dynamicFvMesh staticFvMesh
Reading beam properties from cross-section model
nBeams: 1
    Cross-section model: circle
Attempting to read global mechanical variables from constant/beamProperties coupledTotalLagNetwonRaphsonBeamCoeffs() dictionary!


 Writing mechanical properties of beam no: 0
E EBeam0 [1 -1 -2 0 0 0 0] 3000000
G GBeam0 [1 -1 -2 0 0 0 0] 3000000
A: A [0 2 0 0 0 0 0] 5.026548246e-05
Iyy: Iyy [0 4 0 0 0 0 0] 2.010619298e-10
Izz: Izz [0 4 0 0 0 0 0] 2.010619298e-10
I: I [0 4 0 0 0 0 0] 2.010619298e-10
J: J [0 4 0 0 0 0 0] 4.021238597e-10
EI: (EBeam0*I) [1 3 -2 0 0 0 0] 0.0006031857895
GJ: (GBeam0*J) [1 3 -2 0 0 0 0] 0.001206371579
EA: (EBeam0*A) [1 1 -2 0 0 0 0] 150.7964474
GA: (GBeam0*A) [1 1 -2 0 0 0 0] 150.7964474
Point forces do not exist
moment is time-varying
moment is time-varying
beamMomentumContributionProperties file not found: skipping
Translational constraint tensor (1 0 0 0 1 0 0 0 1)
Rotational constraint tensor (1 0 0 0 1 0 0 0 1)

PIMPLE: Operating solver in PISO mode

Reading field p_rgh

Reading field U

Reading/calculating face flux field phi

Reading transportProperties

Selecting incompressible transport model Newtonian
Selecting incompressible transport model Newtonian
Selecting turbulence model type laminar
Selecting laminar stress model Stokes

Reading g

Reading hRef
Calculating field g.h

No MRF models present

No finite volume options present
GAMGPCG:  Solving for pcorr, Initial residual = 0, Final residual = 0, No Iterations 0
GAMGPCG:  Solving for pcorr, Initial residual = 0, Final residual = 0, No Iterations 0
time step continuity errors : sum local = 0, global = 0, cumulative = 0
Constructing face velocity Uf

Courant Number mean: 0 max: 0

Starting time loop

Courant Number mean: 0 max: 0
Interface Courant Number mean: 0 max: 0
deltaT = 0.01
Time = 0.01

PIMPLE: iteration 1
forces forces:
    rho: rho
    Not including porosity effects

Storing initial W
finiteVolumeBeam debug pre-evolve: attachmentDisp = (0 0 0), right W = (0 0 0), first internal W = (0 0 0), last internal W = (0 0 0)
CTLNRB debug evolve entered, time = 0.01, start patch W = (0 0 0), end patch W = (0 0 0), first internal W = (0 0 0), last internal W = (0 0 0)
Number of rows in the original matrix = 360
Number of rows in matrix = 366
Number of rows in matrix called by solver = 366
Rigid Body Previous Displacement
    0
    0
    0
Rigid Body Previous Orientation
    1 0 0
    0 1 0
    0 0 1
Rigid Body Previous Linear Velocity
    0
    0
    0
Rigid Body Previous Angular Momentum
    0
    0
    0
Rigid Body Previous Linear Acceleration
    0
    0
    0
Rigid Body Previous Torque
    0
    0
    0
Rigid Body Updated Linear Acceleration
    -1.850371708e-18
    1.922651853e-18
    -9.768144014
Rigid Body Updated Torque
    4.498550591e-10
    -1.376475222e-07
    -3.840944293e-10
Rigid Body Updated Velocity
    -9.251858539e-19
    9.613259263e-19
    -4.884072007
Rigid Body Updated Angular Momentum
    2.249275296e-10
    -6.882376111e-08
    -1.920472146e-10
Output rigid-body solution:
___________________________
Displacement
    -4.625929269e-19
    4.806629631e-19
    -2.442036003
Rotation correction
    1.124637648e-10
    -3.441188056e-08
    -9.602360732e-11
___________________________
Rigid-body displacement correction: (-4.625929269e-19 4.806629631e-19 -2.442036003)
Rigid-body rotation correction: (1.124637648e-10 -3.441188056e-08 -9.602360732e-11)
CTLNRB debug after Eigen solve: first DW = (2.296904705e-14 -4.498594487e-21 9.877866102e-08), last DW = (-2.097095826e-14 -4.288611018e-21 9.879029837e-08), first DTheta = (-4.381837427e-21 1.096868151e-06 -2.229382282e-19), last DTheta = (-4.424173461e-21 -1.096844871e-06 2.126126405e-19)
CTLNRB debug after correction BCs: start DW = (0 0 0), end DW = (0 0 0)
CTLNRB debug after updateSolutionVariables: first W = (2.296904705e-14 -4.498594487e-21 9.877866102e-08), last W = (-2.097095826e-14 -4.288611018e-21 9.879029837e-08), end patch W = (0 0 0)
 Iteration       Residual Norm           Step Norm
         1         2.442036019     2.509862318e-05
Number of rows in the original matrix = 360
Number of rows in matrix = 366
Number of rows in matrix called by solver = 366
Rigid Body Previous Displacement
    0
    0
    0
Rigid Body Previous Orientation
    1 0 0
    0 1 0
    0 0 1
Rigid Body Previous Linear Velocity
    0
    0
    0
Rigid Body Previous Angular Momentum
    0
    0
    0
Rigid Body Previous Linear Acceleration
    0
    0
    0
Rigid Body Previous Torque
    0
    0
    0
Rigid Body Updated Linear Acceleration
    -1.850371708e-18
    1.922651853e-18
    -9.768144014
Rigid Body Updated Torque
    4.498550591e-10
    -1.376475222e-07
    -3.840944293e-10
Rigid Body Updated Velocity
    -9.251858539e-19
    9.613259263e-19
    -4.884072007
Rigid Body Updated Angular Momentum
    2.249275296e-10
    -6.882376111e-08
    -1.920472146e-10
Output rigid-body solution:
___________________________
Displacement
    -4.625929269e-19
    4.806629631e-19
    -2.442036003
Rotation correction
    1.124637648e-10
    -3.441188056e-08
    -9.602360732e-11
___________________________
Rigid-body displacement correction: (-4.625929269e-19 4.806629631e-19 -2.442036003)
Rigid-body rotation correction: (1.124637648e-10 -3.441188056e-08 -9.602360732e-11)
CTLNRB debug after Eigen solve: first DW = (6.37466187e-08 9.991707068e-16 -2.682185987e-09), last DW = (1.277467103e-07 9.991190452e-16 -2.676470508e-09), first DTheta = (3.047417667e-15 -5.54190164e-05 -3.727682647e-17), last DTheta = (3.047373169e-15 5.541932777e-05 3.996069705e-17)
CTLNRB debug after correction BCs: start DW = (0 0 0), end DW = (0 0 0)
CTLNRB debug after updateSolutionVariables: first W = (6.374664167e-08 9.991662082e-16 9.609647503e-08), last W = (1.277466894e-07 9.991147566e-16 9.611382787e-08), end patch W = (0 0 0)
         2         2.442037169     0.0002500938837
Number of rows in the original matrix = 360
Number of rows in matrix = 366
Number of rows in matrix called by solver = 366
Rigid Body Previous Displacement
    0
    0
    0
Rigid Body Previous Orientation
    1 0 0
    0 1 0
    0 0 1
Rigid Body Previous Linear Velocity
    0
    0
    0
Rigid Body Previous Angular Momentum
    0
    0
    0
Rigid Body Previous Linear Acceleration
    0
    0
    0
Rigid Body Previous Torque
    0
    0
    0
Rigid Body Updated Linear Acceleration
    -1.850371708e-18
    1.922651853e-18
    -9.768144014
Rigid Body Updated Torque
    4.498550591e-10
    -1.376475222e-07
    -3.840944293e-10
Rigid Body Updated Velocity
    -9.251858539e-19
    9.613259263e-19
    -4.884072007
Rigid Body Updated Angular Momentum
    2.249275296e-10
    -6.882376111e-08
    -1.920472146e-10
Output rigid-body solution:
___________________________
Displacement
    -4.625929269e-19
    4.806629631e-19
    -2.442036003
Rotation correction
    1.124637648e-10
    -3.441188056e-08
    -9.602360732e-11
___________________________
Rigid-body displacement correction: (-4.625929269e-19 4.806629631e-19 -2.442036003)
Rigid-body rotation correction: (1.124637648e-10 -3.441188056e-08 -9.602360732e-11)
CTLNRB debug after Eigen solve: first DW = (1.788501559e-11 -8.525884969e-17 -9.180989947e-08), last DW = (-1.788690262e-11 -8.6733414e-17 -9.178254061e-08), first DTheta = (9.989005942e-14 1.131331789e-05 -3.850615295e-15), last DTheta = (9.988982505e-14 -1.131165346e-05 3.916451633e-15)
CTLNRB debug after correction BCs: start DW = (0 0 0), end DW = (0 0 0)
CTLNRB debug after updateSolutionVariables: first W = (6.376452668e-08 9.139073586e-16 4.286575565e-09), last W = (1.277288025e-07 9.123813426e-16 4.331287258e-09), end patch W = (0 0 0)
         3         2.442036029     3.351912214e-05
Number of rows in the original matrix = 360
Number of rows in matrix = 366
Number of rows in matrix called by solver = 366
Rigid Body Previous Displacement
    0
    0
    0
Rigid Body Previous Orientation
    1 0 0
    0 1 0
    0 0 1
Rigid Body Previous Linear Velocity
    0
    0
    0
Rigid Body Previous Angular Momentum
    0
    0
    0
Rigid Body Previous Linear Acceleration
    0
    0
    0
Rigid Body Previous Torque
    0
    0
    0
Rigid Body Updated Linear Acceleration
    -1.850371708e-18
    1.922651853e-18
    -9.768144014
Rigid Body Updated Torque
    4.498550591e-10
    -1.376475222e-07
    -3.840944293e-10
Rigid Body Updated Velocity
    -9.251858539e-19
    9.613259263e-19
    -4.884072007
Rigid Body Updated Angular Momentum
    2.249275296e-10
    -6.882376111e-08
    -1.920472146e-10
Output rigid-body solution:
___________________________
Displacement
    -4.625929269e-19
    4.806629631e-19
    -2.442036003
Rotation correction
    1.124637648e-10
    -3.441188056e-08
    -9.602360732e-11
___________________________
Rigid-body displacement correction: (-4.625929269e-19 4.806629631e-19 -2.442036003)
Rigid-body rotation correction: (1.124637648e-10 -3.441188056e-08 -9.602360732e-11)
CTLNRB debug after Eigen solve: first DW = (1.974448224e-13 -2.169248006e-21 -7.764434137e-14), last DW = (-1.976361271e-13 -2.209483816e-21 -7.940824059e-14), first DTheta = (-1.029079878e-13 3.494288527e-12 3.283802085e-20), last DTheta = (-1.029077086e-13 -3.573575642e-12 -3.091229876e-20)
CTLNRB debug after correction BCs: start DW = (0 0 0), end DW = (0 0 0)
CTLNRB debug after updateSolutionVariables: first W = (6.376472413e-08 9.139051893e-16 4.286497921e-09), last W = (1.277286048e-07 9.123791331e-16 4.33120785e-09), end patch W = (0 0 0)
         4         2.442036003     2.461566397e-11
Number of rows in the original matrix = 360
Number of rows in matrix = 366
Number of rows in matrix called by solver = 366
Rigid Body Previous Displacement
    0
    0
    0
Rigid Body Previous Orientation
    1 0 0
    0 1 0
    0 0 1
Rigid Body Previous Linear Velocity
    0
    0
    0
Rigid Body Previous Angular Momentum
    0
    0
    0
Rigid Body Previous Linear Acceleration
    0
    0
    0
Rigid Body Previous Torque
    0
    0
    0
Rigid Body Updated Linear Acceleration
    -1.850371708e-18
    1.922651853e-18
    -9.768144014
Rigid Body Updated Torque
    4.498550591e-10
    -1.376475222e-07
    -3.840944293e-10
Rigid Body Updated Velocity
    -9.251858539e-19
    9.613259263e-19
    -4.884072007
Rigid Body Updated Angular Momentum
    2.249275296e-10
    -6.882376111e-08
    -1.920472146e-10
Output rigid-body solution:
___________________________
Displacement
    -4.625929269e-19
    4.806629631e-19
    -2.442036003
Rotation correction
    1.124637648e-10
    -3.441188056e-08
    -9.602360732e-11
___________________________
Rigid-body displacement correction: (-4.625929269e-19 4.806629631e-19 -2.442036003)
Rigid-body rotation correction: (1.124637648e-10 -3.441188056e-08 -9.602360732e-11)
CTLNRB debug after Eigen solve: first DW = (3.038142809e-18 -6.502135856e-24 -1.862935504e-21), last DW = (1.323453814e-20 -6.627275418e-24 -1.951914434e-21), first DTheta = (-8.803254829e-20 8.408541251e-20 -2.932551584e-22), last DTheta = (-8.804546595e-20 -8.811676424e-20 2.988664704e-22)
CTLNRB debug after correction BCs: start DW = (0 0 0), end DW = (0 0 0)
CTLNRB debug after updateSolutionVariables: first W = (6.376472413e-08 9.139051828e-16 4.286497921e-09), last W = (1.277286048e-07 9.123791265e-16 4.33120785e-09), end patch W = (0 0 0)
         5         2.442036003       1.4937795e-16
         5: Converged - Step norm relative tolerance met.
finiteVolumeBeam debug post-evolve: right W = (0 0 0), first internal W = (6.376472413e-08 9.139051828e-16 4.286497921e-09), last internal W = (1.277286048e-07 9.123791265e-16 4.33120785e-09)
finiteVolumeBeam debug Q: attachment Q = (-0.0008698239648 -6.810950285e-12 -3.436518917e-10), anchor Q = (-0.0004344901258 -6.811715975e-12 -5.641906863e-10)
attachment force = (-0.0008698239648 -6.810950285e-12 -3.436518917e-10)
GAMGPCG:  Solving for pcorr, Initial residual = 1, Final residual = 8.396668719e-06, No Iterations 5
GAMGPCG:  Solving for pcorr, Initial residual = 0.08721177559, Final residual = 1.615659559e-06, No Iterations 4
time step continuity errors : sum local = 2.326625583e-11, global = 1.082512171e-12, cumulative = 1.082512171e-12
Mesh Courant Number mean: 0.0001971644001 max: 0.01216336185
smoothSolver:  Solving for alpha.water, Initial residual = 0, Final residual = 0, No Iterations 0
Phase-1 volume fraction = 0  Min(alpha.water) = 0  Max(alpha.water) = 0
MULES: Correcting alpha.water
MULES: Correcting alpha.water
MULES: Correcting alpha.water
Phase-1 volume fraction = 0  Min(alpha.water) = 0  Max(alpha.water) = 0
smoothSolver:  Solving for alpha.water, Initial residual = 0, Final residual = 0, No Iterations 0
Phase-1 volume fraction = 0  Min(alpha.water) = 0  Max(alpha.water) = 0
Applying the previous iteration compression flux
MULES: Correcting alpha.water
MULES: Correcting alpha.water
MULES: Correcting alpha.water
MULES: Correcting alpha.water
Phase-1 volume fraction = 0  Min(alpha.water) = 0  Max(alpha.water) = 0
GAMG:  Solving for p_rgh, Initial residual = 1, Final residual = 0.004406340415, No Iterations 5
GAMG:  Solving for p_rgh, Initial residual = 0.09565299902, Final residual = 0.0005197851214, No Iterations 3
time step continuity errors : sum local = 7.381758998e-09, global = -8.036887788e-10, cumulative = -8.026062666e-10
GAMG:  Solving for p_rgh, Initial residual = 0.007244493834, Final residual = 4.93432447e-05, No Iterations 4
GAMG:  Solving for p_rgh, Initial residual = 0.0009873743638, Final residual = 8.669484501e-06, No Iterations 3
time step continuity errors : sum local = 1.376515809e-10, global = -2.506750609e-11, cumulative = -8.276737727e-10
GAMG:  Solving for p_rgh, Initial residual = 0.0002560392974, Final residual = 1.071034016e-06, No Iterations 4
GAMGPCG:  Solving for p_rgh, Initial residual = 7.689260776e-06, Final residual = 2.518390408e-09, No Iterations 3
time step continuity errors : sum local = 3.975379591e-14, global = 4.979169042e-16, cumulative = -8.276732748e-10
ExecutionTime = 5.35 s  ClockTime = 6 s

Courant Number mean: 0.0002623387538 max: 0.02492650031
Interface Courant Number mean: 0 max: 0
deltaT = 0.01
Time = 0.02

PIMPLE: iteration 1
forces forces:
    rho: rho
    Not including porosity effects

finiteVolumeBeam debug pre-evolve: attachmentDisp = (1.449706577e-09 1.135163187e-17 -0.0002442036003), right W = (1.449706577e-09 1.135163187e-17 -0.0002442036003), first internal W = (6.376472413e-08 9.139051828e-16 4.286497921e-09), last internal W = (1.277286048e-07 9.123791265e-16 4.33120785e-09)
CTLNRB debug evolve entered, time = 0.02, start patch W = (0 0 0), end patch W = (1.449706577e-09 1.135163187e-17 -0.0002442036003), first internal W = (6.376472413e-08 9.139051828e-16 4.286497921e-09), last internal W = (1.277286048e-07 9.123791265e-16 4.33120785e-09)
Number of rows in the original matrix = 360
Number of rows in matrix = 366
Number of rows in matrix called by solver = 366
Rigid Body Previous Displacement
    1.449706577e-09
    1.135163187e-17
    -0.0002442036003
Rigid Body Previous Orientation
    1 2.400590183e-14 -8.602970139e-12
    -2.400590183e-14 1 -2.81159412e-14
    8.602970139e-12 2.81159412e-14 1
Rigid Body Previous Linear Velocity
    2.899413216e-07
    2.270326375e-15
    -0.04884072007
Rigid Body Previous Angular Momentum
    2.249275296e-12
    -6.882376111e-10
    -1.920472146e-12
Rigid Body Previous Linear Acceleration
    5.798826432e-05
    4.54065275e-13
    -9.768144014
Rigid Body Previous Torque
    4.498550591e-10
    -1.376475222e-07
    -3.840944293e-10
Rigid Body Updated Linear Acceleration
    6.600552979e-07
    -1.321539506e-09
    -9.761294268
Rigid Body Updated Torque
    -3.915088168e-09
    -2.497573357e-06
    1.073644101e-09
Rigid Body Updated Velocity
    2.961410113e-05
    -6.605404499e-10
    -9.813559861
Rigid Body Updated Angular Momentum
    -1.730367279e-09
    -1.318298677e-06
    3.428543636e-10
Output rigid-body solution:
___________________________
Displacement
    1.495347093e-05
    -3.302690784e-10
    -4.931444494
Rotation correction
    -8.640590018e-10
    -6.594934575e-07
    1.704669457e-10
___________________________
Rigid-body displacement correction: (1.495347093e-05 -3.302690784e-10 -4.931444494)
Rigid-body rotation correction: (-8.640590018e-10 -6.594934575e-07 1.704669457e-10)
CTLNRB debug after Eigen solve: first DW = (-6.161027424e-08 2.109432531e-17 1.635055266e-09), last DW = (1.077919589e-07 2.723011115e-15 -0.000222821056), first DTheta = (-1.190070839e-11 -7.386327769e-08 9.502023686e-16), last DTheta = (-1.205793952e-11 0.000965673617 1.052219417e-14)
CTLNRB debug after correction BCs: start DW = (0 0 0), end DW = (1.449706577e-09 1.135163187e-17 -0.0002442036003)
CTLNRB debug after updateSolutionVariables: first W = (2.154449891e-09 9.349995081e-16 5.921553187e-09), last W = (2.355205637e-07 3.635390242e-15 -0.0002228167248), end patch W = (1.449706577e-09 1.135163187e-17 -0.0002442036003)
 Iteration       Residual Norm           Step Norm
         1         5.204516049      0.002043423937
Number of rows in the original matrix = 360
Number of rows in matrix = 366
Number of rows in matrix called by solver = 366
Rigid Body Previous Displacement
    1.449706577e-09
    1.135163187e-17
    -0.0002442036003
Rigid Body Previous Orientation
    1 2.400590183e-14 -8.602970139e-12
    -2.400590183e-14 1 -2.81159412e-14
    8.602970139e-12 2.81159412e-14 1
Rigid Body Previous Linear Velocity
    2.899413216e-07
    2.270326375e-15
    -0.04884072007
Rigid Body Previous Angular Momentum
    2.249275296e-12
    -6.882376111e-10
    -1.920472146e-12
Rigid Body Previous Linear Acceleration
    5.798826432e-05
    4.54065275e-13
    -9.768144014
Rigid Body Previous Torque
    4.498550591e-10
    -1.376475222e-07
    -3.840944293e-10
Rigid Body Updated Linear Acceleration
    6.600552979e-07
    -1.321539506e-09
    -9.761294268
Rigid Body Updated Torque
    -3.915088168e-09
    -2.497573357e-06
    1.073644101e-09
Rigid Body Updated Velocity
    2.961410113e-05
    -6.605404499e-10
    -9.813559861
Rigid Body Updated Angular Momentum
    -1.730367279e-09
    -1.318298677e-06
    3.428543636e-10
Output rigid-body solution:
___________________________
Displacement
    1.495347093e-05
    -3.302690784e-10
    -4.931444494
Rotation correction
    -8.640590018e-10
    -6.594934575e-07
    1.704669457e-10
___________________________
Rigid-body displacement correction: (1.495347093e-05 -3.302690784e-10 -4.931444494)
Rigid-body rotation correction: (-8.640590018e-10 -6.594934575e-07 1.704669457e-10)
CTLNRB debug after Eigen solve: first DW = (-1.029719365e-09 2.195767348e-17 4.191838441e-09), last DW = (-2.242484188e-07 -2.663718185e-15 -2.32501485e-07), first DTheta = (1.202798756e-11 -1.893532476e-07 9.943015776e-16), last DTheta = (1.218695141e-11 -1.050485834e-05 -1.863373187e-14)
CTLNRB debug after correction BCs: start DW = (0 0 0), end DW = (0 0 0)
CTLNRB debug after updateSolutionVariables: first W = (1.124730526e-09 9.569571816e-16 1.011339163e-08), last W = (1.127214487e-08 9.716720565e-16 -0.0002230492263), end patch W = (1.449706577e-09 1.135163187e-17 -0.0002442036003)
         2         4.931444755     2.341213383e-05
Number of rows in the original matrix = 360
Number of rows in matrix = 366
Number of rows in matrix called by solver = 366
Rigid Body Previous Displacement
    1.449706577e-09
    1.135163187e-17
    -0.0002442036003
Rigid Body Previous Orientation
    1 2.400590183e-14 -8.602970139e-12
    -2.400590183e-14 1 -2.81159412e-14
    8.602970139e-12 2.81159412e-14 1
Rigid Body Previous Linear Velocity
    2.899413216e-07
    2.270326375e-15
    -0.04884072007
Rigid Body Previous Angular Momentum
    2.249275296e-12
    -6.882376111e-10
    -1.920472146e-12
Rigid Body Previous Linear Acceleration
    5.798826432e-05
    4.54065275e-13
    -9.768144014
Rigid Body Previous Torque
    4.498550591e-10
    -1.376475222e-07
    -3.840944293e-10
Rigid Body Updated Linear Acceleration
    6.600552979e-07
    -1.321539506e-09
    -9.761294268
Rigid Body Updated Torque
    -3.915088168e-09
    -2.497573357e-06
    1.073644101e-09
Rigid Body Updated Velocity
    2.961410113e-05
    -6.605404499e-10
    -9.813559861
Rigid Body Updated Angular Momentum
    -1.730367279e-09
    -1.318298677e-06
    3.428543636e-10
Output rigid-body solution:
___________________________
Displacement
    1.495347093e-05
    -3.302690784e-10
    -4.931444494
Rotation correction
    -8.640590018e-10
    -6.594934575e-07
    1.704669457e-10
___________________________
Rigid-body displacement correction: (1.495347093e-05 -3.302690784e-10 -4.931444494)
Rigid-body rotation correction: (-8.640590018e-10 -6.594934575e-07 1.704669457e-10)
CTLNRB debug after Eigen solve: first DW = (9.119331925e-14 3.142812301e-21 1.579020142e-13), last DW = (1.084253167e-12 -6.104082323e-18 -4.925591471e-11), first DTheta = (-1.272224535e-13 -7.140943255e-12 1.225980484e-18), last DTheta = (-1.289654197e-13 -2.118099036e-09 4.631569994e-16)
CTLNRB debug after correction BCs: start DW = (0 0 0), end DW = (0 0 0)
CTLNRB debug after updateSolutionVariables: first W = (1.124821719e-09 9.569603244e-16 1.011354953e-08), last W = (1.127322912e-08 9.655679742e-16 -0.0002230492756), end patch W = (1.449706577e-09 1.135163187e-17 -0.0002442036003)
         3         4.931444494      5.18392441e-09
Number of rows in the original matrix = 360
Number of rows in matrix = 366
Number of rows in matrix called by solver = 366
Rigid Body Previous Displacement
    1.449706577e-09
    1.135163187e-17
    -0.0002442036003
Rigid Body Previous Orientation
    1 2.400590183e-14 -8.602970139e-12
    -2.400590183e-14 1 -2.81159412e-14
    8.602970139e-12 2.81159412e-14 1
Rigid Body Previous Linear Velocity
    2.899413216e-07
    2.270326375e-15
    -0.04884072007
Rigid Body Previous Angular Momentum
    2.249275296e-12
    -6.882376111e-10
    -1.920472146e-12
Rigid Body Previous Linear Acceleration
    5.798826432e-05
    4.54065275e-13
    -9.768144014
Rigid Body Previous Torque
    4.498550591e-10
    -1.376475222e-07
    -3.840944293e-10
Rigid Body Updated Linear Acceleration
    6.600552979e-07
    -1.321539506e-09
    -9.761294268
Rigid Body Updated Torque
    -3.915088168e-09
    -2.497573357e-06
    1.073644101e-09
Rigid Body Updated Velocity
    2.961410113e-05
    -6.605404499e-10
    -9.813559861
Rigid Body Updated Angular Momentum
    -1.730367279e-09
    -1.318298677e-06
    3.428543636e-10
Output rigid-body solution:
___________________________
Displacement
    1.495347093e-05
    -3.302690784e-10
    -4.931444494
Rotation correction
    -8.640590018e-10
    -6.594934575e-07
    1.704669457e-10
___________________________
Rigid-body displacement correction: (1.495347093e-05 -3.302690784e-10 -4.931444494)
Rigid-body rotation correction: (-8.640590018e-10 -6.594934575e-07 1.704669457e-10)
CTLNRB debug after Eigen solve: first DW = (1.023962614e-18 1.820848814e-25 -6.877483276e-21), last DW = (3.548607117e-19 2.863756385e-22 2.228887655e-19), first DTheta = (-2.73407249e-17 3.106511687e-19 -5.170931447e-24), last DTheta = (-2.770433831e-17 1.060202723e-17 1.324152469e-20)
CTLNRB debug after correction BCs: start DW = (0 0 0), end DW = (0 0 0)
CTLNRB debug after updateSolutionVariables: first W = (1.12482172e-09 9.569603246e-16 1.011354953e-08), last W = (1.127322912e-08 9.655682606e-16 -0.0002230492756), end patch W = (1.449706577e-09 1.135163187e-17 -0.0002442036003)
         4         4.931444494     2.895626262e-16
         4: Converged - Step norm relative tolerance met.
finiteVolumeBeam debug post-evolve: right W = (1.449706577e-09 1.135163187e-17 -0.0002442036003), first internal W = (1.12482172e-09 9.569603246e-16 1.011354953e-08), last internal W = (1.127322912e-08 9.655682606e-16 -0.0002230492756)
finiteVolumeBeam debug Q: attachment Q = (2.047034624e-06 -6.811055346e-12 -1.775920584e-05), anchor Q = (-7.800280224e-06 -6.811826298e-12 -1.3983669e-10)
attachment force = (2.047034624e-06 -6.811055346e-12 -1.775920584e-05)
GAMGPCG:  Solving for pcorr, Initial residual = 1, Final residual = 1.696198892e-06, No Iterations 6
GAMGPCG:  Solving for pcorr, Initial residual = 0.08772359459, Final residual = 7.712850929e-06, No Iterations 3
time step continuity errors : sum local = 3.319796312e-10, global = 5.154732612e-12, cumulative = -8.225185422e-10
Mesh Courant Number mean: 0.0007885884544 max: 0.04868795122
smoothSolver:  Solving for alpha.water, Initial residual = 0, Final residual = 0, No Iterations 0
Phase-1 volume fraction = 0  Min(alpha.water) = 0  Max(alpha.water) = 0
Applying the previous iteration compression flux
MULES: Correcting alpha.water
MULES: Correcting alpha.water
MULES: Correcting alpha.water
MULES: Correcting alpha.water
Phase-1 volume fraction = 0  Min(alpha.water) = 0  Max(alpha.water) = 0
smoothSolver:  Solving for alpha.water, Initial residual = 0, Final residual = 0, No Iterations 0
Phase-1 volume fraction = 0  Min(alpha.water) = 0  Max(alpha.water) = 0
Applying the previous iteration compression flux
MULES: Correcting alpha.water
MULES: Correcting alpha.water
MULES: Correcting alpha.water
MULES: Correcting alpha.water
Phase-1 volume fraction = 0  Min(alpha.water) = 0  Max(alpha.water) = 0
GAMG:  Solving for p_rgh, Initial residual = 0.2800556197, Final residual = 0.002237654538, No Iterations 6
GAMG:  Solving for p_rgh, Initial residual = 0.06122156079, Final residual = 0.0005348669493, No Iterations 3
time step continuity errors : sum local = 2.410889207e-08, global = -2.416970286e-10, cumulative = -1.064215571e-09
GAMG:  Solving for p_rgh, Initial residual = 0.01108459659, Final residual = 6.060916386e-05, No Iterations 4
GAMG:  Solving for p_rgh, Initial residual = 0.00125204409, Final residual = 5.998306127e-06, No Iterations 4
time step continuity errors : sum local = 2.852956105e-10, global = 6.430773266e-11, cumulative = -9.999078382e-10
GAMG:  Solving for p_rgh, Initial residual = 0.000487100787, Final residual = 2.141917391e-06, No Iterations 4
GAMGPCG:  Solving for p_rgh, Initial residual = 3.471162371e-05, Final residual = 1.098044049e-09, No Iterations 4
time step continuity errors : sum local = 5.169841279e-14, global = 3.185682272e-16, cumulative = -9.999075196e-10
ExecutionTime = 10.47 s  ClockTime = 11 s

Courant Number mean: 0.001049327912 max: 0.09929499626
Interface Courant Number mean: 0 max: 0
deltaT = 0.01
Time = 0.03

PIMPLE: iteration 1
forces forces:
    rho: rho
    Not including porosity effects

finiteVolumeBeam debug pre-evolve: attachmentDisp = (6.530224361e-09 -1.64624856e-14 -0.001220932365), right W = (6.530224361e-09 -1.64624856e-14 -0.001220932365), first internal W = (1.12482172e-09 9.569603246e-16 1.011354953e-08), last internal W = (1.127322912e-08 9.655682606e-16 -0.0002230492756)
CTLNRB debug evolve entered, time = 0.03, start patch W = (0 0 0), end patch W = (6.530224361e-09 -1.64624856e-14 -0.001220932365), first internal W = (1.12482172e-09 9.569603246e-16 1.011354953e-08), last internal W = (1.127322912e-08 9.655682606e-16 -0.0002230492756)
Number of rows in the original matrix = 360
Number of rows in matrix = 366
Number of rows in matrix called by solver = 366
Rigid Body Previous Displacement
    6.530224361e-09
    -1.64624856e-14
    -0.001220932365
Rigid Body Previous Orientation
    1 7.447518009e-14 -1.16762533e-10
    -7.447518009e-14 1 -4.17523014e-15
    1.16762533e-10 4.175230148e-15 1
Rigid Body Previous Linear Velocity
    7.261622698e-07
    -3.297037773e-12
    -0.1465050329
Rigid Body Previous Angular Momentum
    -4.16453218e-12
    -7.964527421e-09
    -2.117070114e-12
Rigid Body Previous Linear Acceleration
    2.925592532e-05
    -6.603156851e-10
    -9.764718549
Rigid Body Previous Torque
    -1.732616554e-09
    -1.31761044e-06
    3.447748358e-10
Rigid Body Updated Linear Acceleration
    3.108107294e-06
    -1.465706546e-09
    -9.747367771
Rigid Body Updated Torque
    -1.294641193e-08
    -8.186445862e-06
    4.908966858e-09
Rigid Body Updated Velocity
    1.690817858e-05
    -1.066308153e-09
    -9.902548193
Rigid Body Updated Angular Momentum
    -7.343678772e-09
    -4.759992678e-06
    2.624753777e-09
Output rigid-body solution:
___________________________
Displacement
    8.823700648e-06
    -5.34819058e-10
    -5.025747545
Rotation correction
    -3.673921652e-09
    -2.383978603e-06
    1.311318353e-09
___________________________
Rigid-body displacement correction: (8.823700648e-06 -5.34819058e-10 -5.025747545)
Rigid-body rotation correction: (-3.673921652e-09 -2.383978603e-06 1.311318353e-09)
CTLNRB debug after Eigen solve: first DW = (3.392647475e-08 -5.517604031e-18 1.199103392e-08), last DW = (3.500135396e-06 2.399005932e-14 -0.0008983936994), first DTheta = (-4.331073919e-11 -5.416479687e-07 -2.687551542e-16), last DTheta = (-4.388279294e-11 0.003537779778 1.50208452e-13)
CTLNRB debug after correction BCs: start DW = (0 0 0), end DW = (5.080517784e-09 -1.647383723e-14 -0.0009767287647)
CTLNRB debug after updateSolutionVariables: first W = (3.505129647e-08 9.514427206e-16 2.210458345e-08), last W = (3.511408625e-06 2.495562758e-14 -0.001121442975), end patch W = (6.530224361e-09 -1.64624856e-14 -0.001220932365)
 Iteration       Residual Norm           Step Norm
         1         8.338820563      0.007842019778
Number of rows in the original matrix = 360
Number of rows in matrix = 366
Number of rows in matrix called by solver = 366
Rigid Body Previous Displacement
    6.530224361e-09
    -1.64624856e-14
    -0.001220932365
Rigid Body Previous Orientation
    1 7.447518009e-14 -1.16762533e-10
    -7.447518009e-14 1 -4.17523014e-15
    1.16762533e-10 4.175230148e-15 1
Rigid Body Previous Linear Velocity
    7.261622698e-07
    -3.297037773e-12
    -0.1465050329
Rigid Body Previous Angular Momentum
    -4.16453218e-12
    -7.964527421e-09
    -2.117070114e-12
Rigid Body Previous Linear Acceleration
    2.925592532e-05
    -6.603156851e-10
    -9.764718549
Rigid Body Previous Torque
    -1.732616554e-09
    -1.31761044e-06
    3.447748358e-10
Rigid Body Updated Linear Acceleration
    3.108107294e-06
    -1.465706546e-09
    -9.747367771
Rigid Body Updated Torque
    -1.294641193e-08
    -8.186445862e-06
    4.908966858e-09
Rigid Body Updated Velocity
    1.690817858e-05
    -1.066308153e-09
    -9.902548193
Rigid Body Updated Angular Momentum
    -7.343678772e-09
    -4.759992678e-06
    2.624753777e-09
Output rigid-body solution:
___________________________
Displacement
    8.823700648e-06
    -5.34819058e-10
    -5.025747545
Rotation correction
    -3.673921652e-09
    -2.383978603e-06
    1.311318353e-09
___________________________
Rigid-body displacement correction: (8.823700648e-06 -5.34819058e-10 -5.025747545)
Rigid-body rotation correction: (-3.673921652e-09 -2.383978603e-06 1.311318353e-09)
CTLNRB debug after Eigen solve: first DW = (-1.874192871e-08 1.656320315e-17 8.942434469e-09), last DW = (-3.317954674e-06 -3.892619981e-14 -4.374303504e-06), first DTheta = (4.570296291e-11 -4.039265851e-07 7.820058851e-16), last DTheta = (4.630620972e-11 -0.0001974992125 -3.082159977e-13)
CTLNRB debug after correction BCs: start DW = (0 0 0), end DW = (0 0 0)
CTLNRB debug after updateSolutionVariables: first W = (1.630936776e-08 9.680059237e-16 3.104701792e-08), last W = (1.934539511e-07 -1.397057223e-14 -0.001125817278), end patch W = (6.530224361e-09 -1.64624856e-14 -0.001220932365)
         2         5.025802482     0.0004127165515
Number of rows in the original matrix = 360
Number of rows in matrix = 366
Number of rows in matrix called by solver = 366
Rigid Body Previous Displacement
    6.530224361e-09
    -1.64624856e-14
    -0.001220932365
Rigid Body Previous Orientation
    1 7.447518009e-14 -1.16762533e-10
    -7.447518009e-14 1 -4.17523014e-15
    1.16762533e-10 4.175230148e-15 1
Rigid Body Previous Linear Velocity
    7.261622698e-07
    -3.297037773e-12
    -0.1465050329
Rigid Body Previous Angular Momentum
    -4.16453218e-12
    -7.964527421e-09
    -2.117070114e-12
Rigid Body Previous Linear Acceleration
    2.925592532e-05
    -6.603156851e-10
    -9.764718549
Rigid Body Previous Torque
    -1.732616554e-09
    -1.31761044e-06
    3.447748358e-10
Rigid Body Updated Linear Acceleration
    3.108107294e-06
    -1.465706546e-09
    -9.747367771
Rigid Body Updated Torque
    -1.294641193e-08
    -8.186445862e-06
    4.908966858e-09
Rigid Body Updated Velocity
    1.690817858e-05
    -1.066308153e-09
    -9.902548193
Rigid Body Updated Angular Momentum
    -7.343678772e-09
    -4.759992678e-06
    2.624753777e-09
Output rigid-body solution:
___________________________
Displacement
    8.823700648e-06
    -5.34819058e-10
    -5.025747545
Rotation correction
    -3.673921652e-09
    -2.383978603e-06
    1.311318353e-09
___________________________
Rigid-body displacement correction: (8.823700648e-06 -5.34819058e-10 -5.025747545)
Rigid-body rotation correction: (-3.673921652e-09 -2.383978603e-06 1.311318353e-09)
CTLNRB debug after Eigen solve: first DW = (2.774370347e-11 5.060886102e-20 7.08068342e-11), last DW = (3.524920584e-10 -1.018508339e-16 -1.260094634e-08), first DTheta = (-2.385226787e-12 -3.198761436e-09 8.169060062e-18), last DTheta = (-2.416831316e-12 -5.395505637e-07 1.960263872e-14)
CTLNRB debug after correction BCs: start DW = (0 0 0), end DW = (0 0 0)
CTLNRB debug after updateSolutionVariables: first W = (1.633711146e-08 9.680565326e-16 3.111782475e-08), last W = (1.938064432e-07 -1.407242306e-14 -0.001125829879), end patch W = (6.530224361e-09 -1.64624856e-14 -0.001220932365)
         3         5.025747545     1.267258856e-06
Number of rows in the original matrix = 360
Number of rows in matrix = 366
Number of rows in matrix called by solver = 366
Rigid Body Previous Displacement
    6.530224361e-09
    -1.64624856e-14
    -0.001220932365
Rigid Body Previous Orientation
    1 7.447518009e-14 -1.16762533e-10
    -7.447518009e-14 1 -4.17523014e-15
    1.16762533e-10 4.175230148e-15 1
Rigid Body Previous Linear Velocity
    7.261622698e-07
    -3.297037773e-12
    -0.1465050329
Rigid Body Previous Angular Momentum
    -4.16453218e-12
    -7.964527421e-09
    -2.117070114e-12
Rigid Body Previous Linear Acceleration
    2.925592532e-05
    -6.603156851e-10
    -9.764718549
Rigid Body Previous Torque
    -1.732616554e-09
    -1.31761044e-06
    3.447748358e-10
Rigid Body Updated Linear Acceleration
    3.108107294e-06
    -1.465706546e-09
    -9.747367771
Rigid Body Updated Torque
    -1.294641193e-08
    -8.186445862e-06
    4.908966858e-09
Rigid Body Updated Velocity
    1.690817858e-05
    -1.066308153e-09
    -9.902548193
Rigid Body Updated Angular Momentum
    -7.343678772e-09
    -4.759992678e-06
    2.624753777e-09
Output rigid-body solution:
___________________________
Displacement
    8.823700648e-06
    -5.34819058e-10
    -5.025747545
Rotation correction
    -3.673921652e-09
    -2.383978603e-06
    1.311318353e-09
___________________________
Rigid-body displacement correction: (8.823700648e-06 -5.34819058e-10 -5.025747545)
Rigid-body rotation correction: (-3.673921652e-09 -2.383978603e-06 1.311318353e-09)
CTLNRB debug after Eigen solve: first DW = (2.927579566e-16 4.79909232e-23 -6.565112777e-16), last DW = (3.495099152e-15 2.577273824e-20 4.908290328e-14), first DTheta = (-6.976169694e-15 2.966053712e-14 -1.526768859e-20), last DTheta = (-7.069342681e-15 2.207304394e-12 2.847588927e-17)
CTLNRB debug after correction BCs: start DW = (0 0 0), end DW = (0 0 0)
CTLNRB debug after updateSolutionVariables: first W = (1.633711176e-08 9.680565806e-16 3.11178241e-08), last W = (1.938064467e-07 -1.407239729e-14 -0.001125829879), end patch W = (6.530224361e-09 -1.64624856e-14 -0.001220932365)
         4         5.025747545     5.762800395e-12
Number of rows in the original matrix = 360
Number of rows in matrix = 366
Number of rows in matrix called by solver = 366
Rigid Body Previous Displacement
    6.530224361e-09
    -1.64624856e-14
    -0.001220932365
Rigid Body Previous Orientation
    1 7.447518009e-14 -1.16762533e-10
    -7.447518009e-14 1 -4.17523014e-15
    1.16762533e-10 4.175230148e-15 1
Rigid Body Previous Linear Velocity
    7.261622698e-07
    -3.297037773e-12
    -0.1465050329
Rigid Body Previous Angular Momentum
    -4.16453218e-12
    -7.964527421e-09
    -2.117070114e-12
Rigid Body Previous Linear Acceleration
    2.925592532e-05
    -6.603156851e-10
    -9.764718549
Rigid Body Previous Torque
    -1.732616554e-09
    -1.31761044e-06
    3.447748358e-10
Rigid Body Updated Linear Acceleration
    3.108107294e-06
    -1.465706546e-09
    -9.747367771
Rigid Body Updated Torque
    -1.294641193e-08
    -8.186445862e-06
    4.908966858e-09
Rigid Body Updated Velocity
    1.690817858e-05
    -1.066308153e-09
    -9.902548193
Rigid Body Updated Angular Momentum
    -7.343678772e-09
    -4.759992678e-06
    2.624753777e-09
Output rigid-body solution:
___________________________
Displacement
    8.823700648e-06
    -5.34819058e-10
    -5.025747545
Rotation correction
    -3.673921652e-09
    -2.383978603e-06
    1.311318353e-09
___________________________
Rigid-body displacement correction: (8.823700648e-06 -5.34819058e-10 -5.025747545)
Rigid-body rotation correction: (-3.673921652e-09 -2.383978603e-06 1.311318353e-09)
CTLNRB debug after Eigen solve: first DW = (-1.87656594e-18 9.030841738e-26 -4.300374364e-21), last DW = (-1.262117269e-20 4.510546885e-23 -2.459776824e-18), first DTheta = (2.697220014e-20 1.941735179e-19 4.118084792e-24), last DTheta = (2.733107631e-20 -1.101184976e-16 -2.155546893e-21)
CTLNRB debug after correction BCs: start DW = (0 0 0), end DW = (0 0 0)
CTLNRB debug after updateSolutionVariables: first W = (1.633711175e-08 9.680565806e-16 3.11178241e-08), last W = (1.938064467e-07 -1.407239725e-14 -0.001125829879), end patch W = (6.530224361e-09 -1.64624856e-14 -0.001220932365)
         5         5.025747545     3.056782234e-16
         5: Converged - Step norm relative tolerance met.
finiteVolumeBeam debug post-evolve: right W = (6.530224361e-09 -1.64624856e-14 -0.001220932365), first internal W = (1.633711175e-08 9.680565806e-16 3.11178241e-08), last internal W = (1.938064467e-07 -1.407239725e-14 -0.001125829879)
finiteVolumeBeam debug Q: attachment Q = (0.0001155295202 -6.812233137e-12 -6.260326901e-05), anchor Q = (-0.000111423338 -6.811798991e-12 -5.629975978e-09)
attachment force = (0.0001155295202 -6.812233137e-12 -6.260326901e-05)
GAMGPCG:  Solving for pcorr, Initial residual = 1, Final residual = 7.957332128e-06, No Iterations 5
GAMGPCG:  Solving for pcorr, Initial residual = 0.08689542977, Final residual = 1.609314107e-06, No Iterations 4
time step continuity errors : sum local = 9.361777335e-11, global = -7.830550329e-12, cumulative = -1.00773807e-09
Mesh Courant Number mean: 0.001576863463 max: 0.09751188894
smoothSolver:  Solving for alpha.water, Initial residual = 0, Final residual = 0, No Iterations 0
Phase-1 volume fraction = 0  Min(alpha.water) = 0  Max(alpha.water) = 0
Applying the previous iteration compression flux
MULES: Correcting alpha.water
MULES: Correcting alpha.water
MULES: Correcting alpha.water
MULES: Correcting alpha.water
Phase-1 volume fraction = 0  Min(alpha.water) = 0  Max(alpha.water) = 0
smoothSolver:  Solving for alpha.water, Initial residual = 0, Final residual = 0, No Iterations 0
Phase-1 volume fraction = 0  Min(alpha.water) = 0  Max(alpha.water) = 0
Applying the previous iteration compression flux
MULES: Correcting alpha.water
MULES: Correcting alpha.water
MULES: Correcting alpha.water
MULES: Correcting alpha.water
Phase-1 volume fraction = 0  Min(alpha.water) = 0  Max(alpha.water) = 0
GAMG:  Solving for p_rgh, Initial residual = 0.08166454393, Final residual = 0.0002682781124, No Iterations 5
GAMG:  Solving for p_rgh, Initial residual = 0.02427128998, Final residual = 0.0001650449445, No Iterations 3
time step continuity errors : sum local = 1.041976708e-08, global = -1.111351927e-09, cumulative = -2.119089997e-09
GAMG:  Solving for p_rgh, Initial residual = 0.02007358341, Final residual = 8.024721897e-05, No Iterations 4
GAMG:  Solving for p_rgh, Initial residual = 0.002374893548, Final residual = 8.160144168e-06, No Iterations 4
time step continuity errors : sum local = 5.213405569e-10, global = 1.122744648e-10, cumulative = -2.006815532e-09
GAMG:  Solving for p_rgh, Initial residual = 0.00124211484, Final residual = 2.774444958e-06, No Iterations 4
GAMGPCG:  Solving for p_rgh, Initial residual = 0.0001168513201, Final residual = 2.353412618e-09, No Iterations 4
time step continuity errors : sum local = 1.483163195e-13, global = -6.860340647e-15, cumulative = -2.006822392e-09
ExecutionTime = 15.31 s  ClockTime = 16 s

Courant Number mean: 0.002098479958 max: 0.1971829345
Interface Courant Number mean: 0 max: 0
deltaT = 0.01
Time = 0.04

PIMPLE: iteration 1
forces forces:
    rho: rho
    Not including porosity effects

finiteVolumeBeam debug pre-evolve: attachmentDisp = (1.48315209e-08 -9.251035648e-14 -0.003174001684), right W = (1.48315209e-08 -9.251035648e-14 -0.003174001684), first internal W = (1.633711175e-08 9.680565806e-16 3.11178241e-08), last internal W = (1.938064467e-07 -1.407239725e-14 -0.001125829879)
CTLNRB debug evolve entered, time = 0.04, start patch W = (0 0 0), end patch W = (1.48315209e-08 -9.251035648e-14 -0.003174001684), first internal W = (1.633711175e-08 9.680565806e-16 3.11178241e-08), last internal W = (1.938064467e-07 -1.407239725e-14 -0.001125829879)
Number of rows in the original matrix = 360
Number of rows in matrix = 366
Number of rows in matrix called by solver = 366
Rigid Body Previous Displacement
    1.48315209e-08
    -9.251035648e-14
    -0.003174001684
Rigid Body Previous Orientation
    1 -5.832592195e-14 -6.952281305e-10
    5.832592242e-14 1 6.66946249e-13
    6.952281305e-10 -6.66946249e-13 1
Rigid Body Previous Linear Velocity
    9.340970579e-07
    -1.19125364e-11
    -0.244108831
Rigid Body Previous Angular Momentum
    -4.952518615e-11
    -3.831272037e-08
    1.27411583e-11
Rigid Body Previous Linear Acceleration
    1.23310323e-05
    -1.062784041e-09
    -9.756041073
Rigid Body Previous Torque
    -7.33951424e-09
    -4.752028151e-06
    2.626870847e-09
Rigid Body Updated Linear Acceleration
    5.659477266e-06
    4.743850469e-11
    -9.73991748
Rigid Body Updated Torque
    -2.024792809e-08
    -1.987896402e-05
    2.065152898e-08
Rigid Body Updated Velocity
    9.929351841e-06
    -5.195853046e-10
    -9.992088108
Rigid Body Updated Angular Momentum
    -1.384324635e-08
    -1.235380881e-05
    1.165194107e-08
Output rigid-body solution:
___________________________
Displacement
    5.44655597e-06
    -2.658414309e-10
    -5.121272471
Rotation correction
    -6.946385769e-09
    -6.196060764e-06
    5.832341116e-09
___________________________
Rigid-body displacement correction: (5.44655597e-06 -2.658414309e-10 -5.121272471)
Rigid-body rotation correction: (-6.946385769e-09 -6.196060764e-06 5.832341116e-09)
CTLNRB debug after Eigen solve: first DW = (1.525934656e-07 -5.456983808e-18 3.26943383e-08), last DW = (1.270872641e-05 6.486415101e-14 -0.001814101998), first DTheta = (-7.493158863e-11 -1.4766901e-06 -3.51758915e-16), last DTheta = (-7.591948355e-11 0.0062760674 6.586614179e-13)
CTLNRB debug after correction BCs: start DW = (0 0 0), end DW = (8.301296539e-09 -7.604787088e-14 -0.001953069319)
CTLNRB debug after updateSolutionVariables: first W = (1.689305774e-07 9.625995968e-16 6.38121624e-08), last W = (1.290253286e-05 5.079175376e-14 -0.002939931877), end patch W = (1.48315209e-08 -9.251035648e-14 -0.003174001684)
 Iteration       Residual Norm           Step Norm
         1         14.25722134       0.01491015077
Number of rows in the original matrix = 360
Number of rows in matrix = 366
Number of rows in matrix called by solver = 366
Rigid Body Previous Displacement
    1.48315209e-08
    -9.251035648e-14
    -0.003174001684
Rigid Body Previous Orientation
    1 -5.832592195e-14 -6.952281305e-10
    5.832592242e-14 1 6.66946249e-13
    6.952281305e-10 -6.66946249e-13 1
Rigid Body Previous Linear Velocity
    9.340970579e-07
    -1.19125364e-11
    -0.244108831
Rigid Body Previous Angular Momentum
    -4.952518615e-11
    -3.831272037e-08
    1.27411583e-11
Rigid Body Previous Linear Acceleration
    1.23310323e-05
    -1.062784041e-09
    -9.756041073
Rigid Body Previous Torque
    -7.33951424e-09
    -4.752028151e-06
    2.626870847e-09
Rigid Body Updated Linear Acceleration
    5.659477266e-06
    4.743850469e-11
    -9.73991748
Rigid Body Updated Torque
    -2.024792809e-08
    -1.987896402e-05
    2.065152898e-08
Rigid Body Updated Velocity
    9.929351841e-06
    -5.195853046e-10
    -9.992088108
Rigid Body Updated Angular Momentum
    -1.384324635e-08
    -1.235380881e-05
    1.165194107e-08
Output rigid-body solution:
___________________________
Displacement
    5.44655597e-06
    -2.658414309e-10
    -5.121272471
Rotation correction
    -6.946385769e-09
    -6.196060764e-06
    5.832341116e-09
___________________________
Rigid-body displacement correction: (5.44655597e-06 -2.658414309e-10 -5.121272471)
Rigid-body rotation correction: (-6.946385769e-09 -6.196060764e-06 5.832341116e-09)
CTLNRB debug after Eigen solve: first DW = (-6.989105915e-08 1.213305445e-17 2.499004364e-08), last DW = (-1.192031134e-05 -1.346041119e-13 -1.606844828e-05), first DTheta = (8.32702346e-11 -1.12865716e-06 7.327271308e-16), last DTheta = (8.436423595e-11 -0.0007256372604 -1.271788185e-12)
CTLNRB debug after correction BCs: start DW = (0 0 0), end DW = (0 0 0)
CTLNRB debug after updateSolutionVariables: first W = (9.903951823e-08 9.747326513e-16 8.880220604e-08), last W = (9.822215219e-07 -8.381235809e-14 -0.002956000326), end patch W = (1.48315209e-08 -9.251035648e-14 -0.003174001684)
         2         5.121951995      0.001735628516
Number of rows in the original matrix = 360
Number of rows in matrix = 366
Number of rows in matrix called by solver = 366
Rigid Body Previous Displacement
    1.48315209e-08
    -9.251035648e-14
    -0.003174001684
Rigid Body Previous Orientation
    1 -5.832592195e-14 -6.952281305e-10
    5.832592242e-14 1 6.66946249e-13
    6.952281305e-10 -6.66946249e-13 1
Rigid Body Previous Linear Velocity
    9.340970579e-07
    -1.19125364e-11
    -0.244108831
Rigid Body Previous Angular Momentum
    -4.952518615e-11
    -3.831272037e-08
    1.27411583e-11
Rigid Body Previous Linear Acceleration
    1.23310323e-05
    -1.062784041e-09
    -9.756041073
Rigid Body Previous Torque
    -7.33951424e-09
    -4.752028151e-06
    2.626870847e-09
Rigid Body Updated Linear Acceleration
    5.659477266e-06
    4.743850469e-11
    -9.73991748
Rigid Body Updated Torque
    -2.024792809e-08
    -1.987896402e-05
    2.065152898e-08
Rigid Body Updated Velocity
    9.929351841e-06
    -5.195853046e-10
    -9.992088108
Rigid Body Updated Angular Momentum
    -1.384324635e-08
    -1.235380881e-05
    1.165194107e-08
Output rigid-body solution:
___________________________
Displacement
    5.44655597e-06
    -2.658414309e-10
    -5.121272471
Rotation correction
    -6.946385769e-09
    -6.196060764e-06
    5.832341116e-09
___________________________
Rigid-body displacement correction: (5.44655597e-06 -2.658414309e-10 -5.121272471)
Rigid-body rotation correction: (-6.946385769e-09 -6.196060764e-06 5.832341116e-09)
CTLNRB debug after Eigen solve: first DW = (4.552302579e-10 1.744154642e-19 1.432506643e-09), last DW = (3.536860784e-09 -4.880059917e-16 -1.948672102e-07), first DTheta = (-8.231010356e-12 -6.470897164e-08 2.185751549e-17), last DTheta = (-8.339411501e-12 -8.413124782e-06 1.354606928e-13)
CTLNRB debug after correction BCs: start DW = (0 0 0), end DW = (0 0 0)
CTLNRB debug after updateSolutionVariables: first W = (9.949474849e-08 9.749070667e-16 9.023471268e-08), last W = (9.857583827e-07 -8.430036408e-14 -0.002956195193), end patch W = (1.48315209e-08 -9.251035648e-14 -0.003174001684)
         3         5.121272471     2.070476201e-05
Number of rows in the original matrix = 360
Number of rows in matrix = 366
Number of rows in matrix called by solver = 366
Rigid Body Previous Displacement
    1.48315209e-08
    -9.251035648e-14
    -0.003174001684
Rigid Body Previous Orientation
    1 -5.832592195e-14 -6.952281305e-10
    5.832592242e-14 1 6.66946249e-13
    6.952281305e-10 -6.66946249e-13 1
Rigid Body Previous Linear Velocity
    9.340970579e-07
    -1.19125364e-11
    -0.244108831
Rigid Body Previous Angular Momentum
    -4.952518615e-11
    -3.831272037e-08
    1.27411583e-11
Rigid Body Previous Linear Acceleration
    1.23310323e-05
    -1.062784041e-09
    -9.756041073
Rigid Body Previous Torque
    -7.33951424e-09
    -4.752028151e-06
    2.626870847e-09
Rigid Body Updated Linear Acceleration
    5.659477266e-06
    4.743850469e-11
    -9.73991748
Rigid Body Updated Torque
    -2.024792809e-08
    -1.987896402e-05
    2.065152898e-08
Rigid Body Updated Velocity
    9.929351841e-06
    -5.195853046e-10
    -9.992088108
Rigid Body Updated Angular Momentum
    -1.384324635e-08
    -1.235380881e-05
    1.165194107e-08
Output rigid-body solution:
___________________________
Displacement
    5.44655597e-06
    -2.658414309e-10
    -5.121272471
Rotation correction
    -6.946385769e-09
    -6.196060764e-06
    5.832341116e-09
___________________________
Rigid-body displacement correction: (5.44655597e-06 -2.658414309e-10 -5.121272471)
Rigid-body rotation correction: (-6.946385769e-09 -6.196060764e-06 5.832341116e-09)
CTLNRB debug after Eigen solve: first DW = (7.908645847e-14 4.265998799e-22 -2.423211588e-13), last DW = (8.927252193e-13 1.902185041e-19 1.188314019e-11), first DTheta = (-1.076857699e-13 1.094730185e-11 -6.839228535e-19), last DTheta = (-1.091251549e-13 5.349387766e-10 1.026612895e-15)
CTLNRB debug after correction BCs: start DW = (0 0 0), end DW = (0 0 0)
CTLNRB debug after updateSolutionVariables: first W = (9.949482758e-08 9.749074933e-16 9.023447036e-08), last W = (9.857592754e-07 -8.430017386e-14 -0.002956195181), end patch W = (1.48315209e-08 -9.251035648e-14 -0.003174001684)
         4         5.121272471     1.474718598e-09
Number of rows in the original matrix = 360
Number of rows in matrix = 366
Number of rows in matrix called by solver = 366
Rigid Body Previous Displacement
    1.48315209e-08
    -9.251035648e-14
    -0.003174001684
Rigid Body Previous Orientation
    1 -5.832592195e-14 -6.952281305e-10
    5.832592242e-14 1 6.66946249e-13
    6.952281305e-10 -6.66946249e-13 1
Rigid Body Previous Linear Velocity
    9.340970579e-07
    -1.19125364e-11
    -0.244108831
Rigid Body Previous Angular Momentum
    -4.952518615e-11
    -3.831272037e-08
    1.27411583e-11
Rigid Body Previous Linear Acceleration
    1.23310323e-05
    -1.062784041e-09
    -9.756041073
Rigid Body Previous Torque
    -7.33951424e-09
    -4.752028151e-06
    2.626870847e-09
Rigid Body Updated Linear Acceleration
    5.659477266e-06
    4.743850469e-11
    -9.73991748
Rigid Body Updated Torque
    -2.024792809e-08
    -1.987896402e-05
    2.065152898e-08
Rigid Body Updated Velocity
    9.929351841e-06
    -5.195853046e-10
    -9.992088108
Rigid Body Updated Angular Momentum
    -1.384324635e-08
    -1.235380881e-05
    1.165194107e-08
Output rigid-body solution:
___________________________
Displacement
    5.44655597e-06
    -2.658414309e-10
    -5.121272471
Rotation correction
    -6.946385769e-09
    -6.196060764e-06
    5.832341116e-09
___________________________
Rigid-body displacement correction: (5.44655597e-06 -2.658414309e-10 -5.121272471)
Rigid-body rotation correction: (-6.946385769e-09 -6.196060764e-06 5.832341116e-09)
CTLNRB debug after Eigen solve: first DW = (4.081872062e-18 5.688250618e-24 4.584221906e-20), last DW = (5.993632752e-19 1.005533266e-21 1.027029126e-17), first DTheta = (6.485442982e-18 -2.070180751e-18 2.84570611e-22), last DTheta = (6.57404697e-18 4.68044147e-16 -1.100565909e-19)
CTLNRB debug after correction BCs: start DW = (0 0 0), end DW = (0 0 0)
CTLNRB debug after updateSolutionVariables: first W = (9.949482758e-08 9.74907499e-16 9.023447036e-08), last W = (9.857592754e-07 -8.430017286e-14 -0.002956195181), end patch W = (1.48315209e-08 -9.251035648e-14 -0.003174001684)
         5         5.121272471     1.202964199e-15
         5: Converged - Step norm relative tolerance met.
finiteVolumeBeam debug post-evolve: right W = (1.48315209e-08 -9.251035648e-14 -0.003174001684), first internal W = (9.949482758e-08 9.74907499e-16 9.023447036e-08), last internal W = (9.857592754e-07 -8.430017286e-14 -0.002956195181)
finiteVolumeBeam debug Q: attachment Q = (0.0006832552769 -6.816134118e-12 -0.0001100722959), anchor Q = (-0.0006778773353 -6.811793774e-12 -6.365846418e-08)
attachment force = (0.0006832552769 -6.816134118e-12 -0.0001100722959)
GAMGPCG:  Solving for pcorr, Initial residual = 1, Final residual = 1.036781784e-06, No Iterations 6
GAMGPCG:  Solving for pcorr, Initial residual = 0.08629924076, Final residual = 7.43271068e-06, No Iterations 3
time step continuity errors : sum local = 4.394726069e-10, global = 6.075397446e-12, cumulative = -2.000746995e-09
Mesh Courant Number mean: 0.002364556214 max: 0.1465727754
smoothSolver:  Solving for alpha.water, Initial residual = 0, Final residual = 0, No Iterations 0
Phase-1 volume fraction = 0  Min(alpha.water) = 0  Max(alpha.water) = 0
Applying the previous iteration compression flux
MULES: Correcting alpha.water
MULES: Correcting alpha.water
MULES: Correcting alpha.water
MULES: Correcting alpha.water
Phase-1 volume fraction = 0  Min(alpha.water) = 0  Max(alpha.water) = 0
smoothSolver:  Solving for alpha.water, Initial residual = 0, Final residual = 0, No Iterations 0
Phase-1 volume fraction = 0  Min(alpha.water) = 0  Max(alpha.water) = 0
Applying the previous iteration compression flux
MULES: Correcting alpha.water
MULES: Correcting alpha.water
MULES: Correcting alpha.water
MULES: Correcting alpha.water
Phase-1 volume fraction = 0  Min(alpha.water) = 0  Max(alpha.water) = 0
GAMG:  Solving for p_rgh, Initial residual = 0.03435000507, Final residual = 0.0001910831986, No Iterations 5
GAMG:  Solving for p_rgh, Initial residual = 0.005477356342, Final residual = 3.555599477e-05, No Iterations 4
time step continuity errors : sum local = 2.352977258e-09, global = 2.573403143e-11, cumulative = -1.975012963e-09
GAMG:  Solving for p_rgh, Initial residual = 0.0275696098, Final residual = 0.0001834463954, No Iterations 4
GAMG:  Solving for p_rgh, Initial residual = 0.003427432589, Final residual = 1.783842778e-05, No Iterations 4
time step continuity errors : sum local = 1.163040739e-09, global = 2.705125496e-10, cumulative = -1.704500414e-09
GAMG:  Solving for p_rgh, Initial residual = 0.002265415721, Final residual = 7.023118757e-06, No Iterations 4
GAMGPCG:  Solving for p_rgh, Initial residual = 0.0002280946027, Final residual = 6.365657767e-09, No Iterations 4
time step continuity errors : sum local = 4.085168309e-13, global = -2.706418453e-14, cumulative = -1.704527478e-09
ExecutionTime = 20.25 s  ClockTime = 20 s

Courant Number mean: 0.003147330463 max: 0.2926083958
Interface Courant Number mean: 0 max: 0
deltaT = 0.01
Time = 0.05

PIMPLE: iteration 1
forces forces:
    rho: rho
    Not including porosity effects

finiteVolumeBeam debug pre-evolve: attachmentDisp = (2.413626943e-08 -2.508914606e-13 -0.006102690411), right W = (2.413626943e-08 -2.508914606e-13 -0.006102690411), first internal W = (9.949482758e-08 9.74907499e-16 9.023447036e-08), last internal W = (9.857592754e-07 -8.430017286e-14 -0.002956195181)
CTLNRB debug evolve entered, time = 0.05, start patch W = (0 0 0), end patch W = (2.413626943e-08 -2.508914606e-13 -0.006102690411), first internal W = (9.949482758e-08 9.74907499e-16 9.023447036e-08), last internal W = (9.857592754e-07 -8.430017286e-14 -0.002956195181)
Number of rows in the original matrix = 360
Number of rows in matrix = 366
Number of rows in matrix called by solver = 366
Rigid Body Previous Displacement
    2.413626943e-08
    -2.508914606e-13
    -0.006102690411
Rigid Body Previous Orientation
    1 -1.268484298e-12 -2.719766405e-09
    1.268484306e-12 1 3.225903114e-12
    2.719766405e-09 -3.225903118e-12 1
Rigid Body Previous Linear Velocity
    9.268526138e-07
    -1.976368443e-11
    -0.3416289144
Rigid Body Previous Angular Momentum
    -1.551913632e-10
    -1.236503416e-07
    8.407151211e-11
Rigid Body Previous Linear Acceleration
    -1.377992111e-05
    -5.074455637e-10
    -9.747975608
Rigid Body Previous Torque
    -1.379372117e-08
    -1.231549609e-05
    1.163919992e-08
Rigid Body Updated Linear Acceleration
    6.040598727e-06
    1.015530729e-09
    -9.739153702
Rigid Body Updated Torque
    -4.015418065e-08
    -4.320701369e-05
    3.575864476e-08
Rigid Body Updated Velocity
    -2.942808579e-06
    2.342788981e-10
    -10.08519357
Rigid Body Updated Angular Momentum
    -2.712914227e-08
    -2.788490523e-05
    2.378299385e-08
Output rigid-body solution:
___________________________
Displacement
    -9.838417133e-07
    1.070067154e-10
    -5.219513932
Rotation correction
    -1.364216682e-08
    -1.400427779e-05
    1.193353268e-08
___________________________
Rigid-body displacement correction: (-9.838417133e-07 1.070067154e-10 -5.219513932)
Rigid-body rotation correction: (-1.364216682e-08 -1.400427779e-05 1.193353268e-08)
CTLNRB debug after Eigen solve: first DW = (3.61860105e-07 -3.207413633e-18 -1.006893158e-08), last DW = (2.421661095e-05 9.309073202e-14 -0.002755759936), first DTheta = (-8.956206127e-11 4.555087513e-07 -5.098858101e-16), last DTheta = (-9.07354456e-11 0.007809677704 1.536849923e-12)
CTLNRB debug after correction BCs: start DW = (0 0 0), end DW = (9.304748527e-09 -1.583811042e-13 -0.002928688727)
CTLNRB debug after updateSolutionVariables: first W = (4.613549326e-07 9.717000854e-16 8.016553878e-08), last W = (2.520237022e-05 8.79055916e-15 -0.005711955117), end patch W = (2.413626943e-08 -2.508914606e-13 -0.006102690411)
 Iteration       Residual Norm           Step Norm
         1         20.62368658       0.02081587423
Number of rows in the original matrix = 360
Number of rows in matrix = 366
Number of rows in matrix called by solver = 366
Rigid Body Previous Displacement
    2.413626943e-08
    -2.508914606e-13
    -0.006102690411
Rigid Body Previous Orientation
    1 -1.268484298e-12 -2.719766405e-09
    1.268484306e-12 1 3.225903114e-12
    2.719766405e-09 -3.225903118e-12 1
Rigid Body Previous Linear Velocity
    9.268526138e-07
    -1.976368443e-11
    -0.3416289144
Rigid Body Previous Angular Momentum
    -1.551913632e-10
    -1.236503416e-07
    8.407151211e-11
Rigid Body Previous Linear Acceleration
    -1.377992111e-05
    -5.074455637e-10
    -9.747975608
Rigid Body Previous Torque
    -1.379372117e-08
    -1.231549609e-05
    1.163919992e-08
Rigid Body Updated Linear Acceleration
    6.040598727e-06
    1.015530729e-09
    -9.739153702
Rigid Body Updated Torque
    -4.015418065e-08
    -4.320701369e-05
    3.575864476e-08
Rigid Body Updated Velocity
    -2.942808579e-06
    2.342788981e-10
    -10.08519357
Rigid Body Updated Angular Momentum
    -2.712914227e-08
    -2.788490523e-05
    2.378299385e-08
Output rigid-body solution:
___________________________
Displacement
    -9.838417133e-07
    1.070067154e-10
    -5.219513932
Rotation correction
    -1.364216682e-08
    -1.400427779e-05
    1.193353268e-08
___________________________
Rigid-body displacement correction: (-9.838417133e-07 1.070067154e-10 -5.219513932)
Rigid-body rotation correction: (-1.364216682e-08 -1.400427779e-05 1.193353268e-08)
CTLNRB debug after Eigen solve: first DW = (-1.393331927e-07 9.932761879e-18 1.332646922e-09), last DW = (-2.247230551e-05 -2.404693554e-13 -2.367213939e-05), first DTheta = (1.004854637e-10 -5.956254333e-08 8.328310865e-16), last DTheta = (1.017908056e-10 -0.001069014574 -2.586006641e-12)
CTLNRB debug after correction BCs: start DW = (0 0 0), end DW = (0 0 0)
CTLNRB debug after updateSolutionVariables: first W = (3.220217399e-07 9.816328473e-16 8.14981857e-08), last W = (2.730064712e-06 -2.316787962e-13 -0.005735627257), end patch W = (2.413626943e-08 -2.508914606e-13 -0.006102690411)
         2         5.221841433      0.003532627193
Number of rows in the original matrix = 360
Number of rows in matrix = 366
Number of rows in matrix called by solver = 366
Rigid Body Previous Displacement
    2.413626943e-08
    -2.508914606e-13
    -0.006102690411
Rigid Body Previous Orientation
    1 -1.268484298e-12 -2.719766405e-09
    1.268484306e-12 1 3.225903114e-12
    2.719766405e-09 -3.225903118e-12 1
Rigid Body Previous Linear Velocity
    9.268526138e-07
    -1.976368443e-11
    -0.3416289144
Rigid Body Previous Angular Momentum
    -1.551913632e-10
    -1.236503416e-07
    8.407151211e-11
Rigid Body Previous Linear Acceleration
    -1.377992111e-05
    -5.074455637e-10
    -9.747975608
Rigid Body Previous Torque
    -1.379372117e-08
    -1.231549609e-05
    1.163919992e-08
Rigid Body Updated Linear Acceleration
    6.040598727e-06
    1.015530729e-09
    -9.739153702
Rigid Body Updated Torque
    -4.015418065e-08
    -4.320701369e-05
    3.575864476e-08
Rigid Body Updated Velocity
    -2.942808579e-06
    2.342788981e-10
    -10.08519357
Rigid Body Updated Angular Momentum
    -2.712914227e-08
    -2.788490523e-05
    2.378299385e-08
Output rigid-body solution:
___________________________
Displacement
    -9.838417133e-07
    1.070067154e-10
    -5.219513932
Rotation correction
    -1.364216682e-08
    -1.400427779e-05
    1.193353268e-08
___________________________
Rigid-body displacement correction: (-9.838417133e-07 1.070067154e-10 -5.219513932)
Rigid-body rotation correction: (-1.364216682e-08 -1.400427779e-05 1.193353268e-08)
CTLNRB debug after Eigen solve: first DW = (1.71476613e-09 4.313959816e-19 5.951392159e-09), last DW = (-1.585186981e-10 -1.187355444e-15 -6.924746093e-07), first DTheta = (-1.054137915e-11 -2.688028684e-07 -1.631142128e-17), last DTheta = (-1.067783465e-11 -3.020539847e-05 2.877477945e-13)
CTLNRB debug after correction BCs: start DW = (0 0 0), end DW = (0 0 0)
CTLNRB debug after updateSolutionVariables: first W = (3.23736506e-07 9.820642433e-16 8.744957786e-08), last W = (2.729906193e-06 -2.328661517e-13 -0.005736319731), end patch W = (2.413626943e-08 -2.508914606e-13 -0.006102690411)
         3         5.219513936      8.20486723e-05
Number of rows in the original matrix = 360
Number of rows in matrix = 366
Number of rows in matrix called by solver = 366
Rigid Body Previous Displacement
    2.413626943e-08
    -2.508914606e-13
    -0.006102690411
Rigid Body Previous Orientation
    1 -1.268484298e-12 -2.719766405e-09
    1.268484306e-12 1 3.225903114e-12
    2.719766405e-09 -3.225903118e-12 1
Rigid Body Previous Linear Velocity
    9.268526138e-07
    -1.976368443e-11
    -0.3416289144
Rigid Body Previous Angular Momentum
    -1.551913632e-10
    -1.236503416e-07
    8.407151211e-11
Rigid Body Previous Linear Acceleration
    -1.377992111e-05
    -5.074455637e-10
    -9.747975608
Rigid Body Previous Torque
    -1.379372117e-08
    -1.231549609e-05
    1.163919992e-08
Rigid Body Updated Linear Acceleration
    6.040598727e-06
    1.015530729e-09
    -9.739153702
Rigid Body Updated Torque
    -4.015418065e-08
    -4.320701369e-05
    3.575864476e-08
Rigid Body Updated Velocity
    -2.942808579e-06
    2.342788981e-10
    -10.08519357
Rigid Body Updated Angular Momentum
    -2.712914227e-08
    -2.788490523e-05
    2.378299385e-08
Output rigid-body solution:
___________________________
Displacement
    -9.838417133e-07
    1.070067154e-10
    -5.219513932
Rotation correction
    -1.364216682e-08
    -1.400427779e-05
    1.193353268e-08
___________________________
Rigid-body displacement correction: (-9.838417133e-07 1.070067154e-10 -5.219513932)
Rigid-body rotation correction: (-1.364216682e-08 -1.400427779e-05 1.193353268e-08)
CTLNRB debug after Eigen solve: first DW = (1.240943776e-12 -1.049794122e-21 -4.639967051e-12), last DW = (1.199822569e-11 3.877190337e-19 1.470926893e-10), first DTheta = (-3.822662301e-13 2.096047513e-10 -2.975382843e-18), last DTheta = (-3.873560548e-13 6.635411954e-09 6.22014716e-15)
CTLNRB debug after correction BCs: start DW = (0 0 0), end DW = (0 0 0)
CTLNRB debug after updateSolutionVariables: first W = (3.23737747e-07 9.820631935e-16 8.744493789e-08), last W = (2.729918192e-06 -2.32865764e-13 -0.005736319584), end patch W = (2.413626943e-08 -2.508914606e-13 -0.006102690411)
         4         5.219513932     2.033101691e-08
Number of rows in the original matrix = 360
Number of rows in matrix = 366
Number of rows in matrix called by solver = 366
Rigid Body Previous Displacement
    2.413626943e-08
    -2.508914606e-13
    -0.006102690411
Rigid Body Previous Orientation
    1 -1.268484298e-12 -2.719766405e-09
    1.268484306e-12 1 3.225903114e-12
    2.719766405e-09 -3.225903118e-12 1
Rigid Body Previous Linear Velocity
    9.268526138e-07
    -1.976368443e-11
    -0.3416289144
Rigid Body Previous Angular Momentum
    -1.551913632e-10
    -1.236503416e-07
    8.407151211e-11
Rigid Body Previous Linear Acceleration
    -1.377992111e-05
    -5.074455637e-10
    -9.747975608
Rigid Body Previous Torque
    -1.379372117e-08
    -1.231549609e-05
    1.163919992e-08
Rigid Body Updated Linear Acceleration
    6.040598727e-06
    1.015530729e-09
    -9.739153702
Rigid Body Updated Torque
    -4.015418065e-08
    -4.320701369e-05
    3.575864476e-08
Rigid Body Updated Velocity
    -2.942808579e-06
    2.342788981e-10
    -10.08519357
Rigid Body Updated Angular Momentum
    -2.712914227e-08
    -2.788490523e-05
    2.378299385e-08
Output rigid-body solution:
___________________________
Displacement
    -9.838417133e-07
    1.070067154e-10
    -5.219513932
Rotation correction
    -1.364216682e-08
    -1.400427779e-05
    1.193353268e-08
___________________________
Rigid-body displacement correction: (-9.838417133e-07 1.070067154e-10 -5.219513932)
Rigid-body rotation correction: (-1.364216682e-08 -1.400427779e-05 1.193353268e-08)
CTLNRB debug after Eigen solve: first DW = (-2.72888313e-19 3.780480589e-23 1.405495477e-18), last DW = (3.825905249e-18 3.49042169e-21 -3.790544804e-17), first DTheta = (7.939959921e-17 -6.350050243e-17 2.101172536e-21), last DTheta = (8.050441299e-17 -1.694595951e-15 -1.487483027e-18)
CTLNRB debug after correction BCs: start DW = (0 0 0), end DW = (0 0 0)
CTLNRB debug after updateSolutionVariables: first W = (3.23737747e-07 9.820632313e-16 8.74449379e-08), last W = (2.729918192e-06 -2.328657605e-13 -0.005736319584), end patch W = (2.413626943e-08 -2.508914606e-13 -0.006102690411)
         5         5.219513932      4.75946816e-15
         5: Converged - Step norm relative tolerance met.
finiteVolumeBeam debug post-evolve: right W = (2.413626943e-08 -2.508914606e-13 -0.006102690411), first internal W = (3.23737747e-07 9.820632313e-16 8.74449379e-08), last internal W = (2.729918192e-06 -2.328657605e-13 -0.005736319584)
finiteVolumeBeam debug Q: attachment Q = (0.002216204795 -6.821030911e-12 -0.0001635381538), anchor Q = (-0.002205372926 -6.81179486e-12 -2.662638298e-07)
attachment force = (0.002216204795 -6.821030911e-12 -0.0001635381538)
GAMGPCG:  Solving for pcorr, Initial residual = 1, Final residual = 4.568359607e-06, No Iterations 5
GAMGPCG:  Solving for pcorr, Initial residual = 0.08573965541, Final residual = 1.474283035e-06, No Iterations 4
time step continuity errors : sum local = 8.921272296e-11, global = -1.076391941e-11, cumulative = -1.715291397e-09
Mesh Courant Number mean: 0.00315165904 max: 0.1959896799
smoothSolver:  Solving for alpha.water, Initial residual = 0, Final residual = 0, No Iterations 0
Phase-1 volume fraction = 0  Min(alpha.water) = 0  Max(alpha.water) = 0
Applying the previous iteration compression flux
MULES: Correcting alpha.water
MULES: Correcting alpha.water
MULES: Correcting alpha.water
MULES: Correcting alpha.water
Phase-1 volume fraction = 0  Min(alpha.water) = 0  Max(alpha.water) = 0
smoothSolver:  Solving for alpha.water, Initial residual = 0, Final residual = 0, No Iterations 0
Phase-1 volume fraction = 0  Min(alpha.water) = 0  Max(alpha.water) = 0
Applying the previous iteration compression flux
MULES: Correcting alpha.water
MULES: Correcting alpha.water
MULES: Correcting alpha.water
MULES: Correcting alpha.water
Phase-1 volume fraction = 0  Min(alpha.water) = 0  Max(alpha.water) = 0
GAMG:  Solving for p_rgh, Initial residual = 0.04119096261, Final residual = 0.0003032823598, No Iterations 4
GAMG:  Solving for p_rgh, Initial residual = 0.006260614531, Final residual = 2.855835604e-05, No Iterations 4
time step continuity errors : sum local = 1.957894057e-09, global = -1.956807685e-10, cumulative = -1.910972166e-09
GAMG:  Solving for p_rgh, Initial residual = 0.03269384836, Final residual = 0.0001411803795, No Iterations 4
GAMG:  Solving for p_rgh, Initial residual = 0.004196830528, Final residual = 1.709396777e-05, No Iterations 4
time step continuity errors : sum local = 1.158833615e-09, global = 2.048642864e-10, cumulative = -1.706107879e-09
GAMG:  Solving for p_rgh, Initial residual = 0.003233948915, Final residual = 3.126787983e-05, No Iterations 3
GAMGPCG:  Solving for p_rgh, Initial residual = 0.0003621497843, Final residual = 7.548914463e-09, No Iterations 4
time step continuity errors : sum local = 5.032446921e-13, global = -2.061697846e-14, cumulative = -1.706128496e-09
ExecutionTime = 25.13 s  ClockTime = 25 s

Courant Number mean: 0.004196049942 max: 0.3850598544
Interface Courant Number mean: 0 max: 0
deltaT = 0.01
Time = 0.06

PIMPLE: iteration 1
forces forces:
    rho: rho
    Not including porosity effects

finiteVolumeBeam debug pre-evolve: attachmentDisp = (3.111671854e-08 -4.548576952e-13 -0.01000626793), right W = (3.111671854e-08 -4.548576952e-13 -0.01000626793), first internal W = (3.23737747e-07 9.820632313e-16 8.74449379e-08), last internal W = (2.729918192e-06 -2.328657605e-13 -0.005736319584)
CTLNRB debug evolve entered, time = 0.06, start patch W = (0 0 0), end patch W = (3.111671854e-08 -4.548576952e-13 -0.01000626793), first internal W = (3.23737747e-07 9.820632313e-16 8.74449379e-08), last internal W = (2.729918192e-06 -2.328657605e-13 -0.005736319584)
Number of rows in the original matrix = 360
Number of rows in matrix = 366
Number of rows in matrix called by solver = 366
Rigid Body Previous Displacement
    3.111671854e-08
    -4.548576952e-13
    -0.01000626793
Rigid Body Previous Orientation
    1 -5.578904706e-12 -8.31582188e-09
    5.578904786e-12 1 9.653666679e-12
    8.31582188e-09 -9.653666726e-12 1
Rigid Body Previous Linear Velocity
    4.692372365e-07
    -2.10295625e-11
    -0.4390865884
Rigid Body Previous Angular Momentum
    -3.590297235e-10
    -3.240340965e-07
    2.607621234e-10
Rigid Body Previous Linear Acceleration
    -7.774315435e-05
    2.542699502e-10
    -9.743559204
Rigid Body Previous Torque
    -2.697395091e-08
    -2.776125489e-05
    2.369892234e-08
Rigid Body Updated Linear Acceleration
    1.095141156e-05
    5.370815636e-09
    -9.738332113
Rigid Body Updated Torque
    -5.594658741e-08
    -8.830110641e-05
    4.893894672e-08
Rigid Body Updated Velocity
    -3.292663416e-05
    2.791513231e-09
    -10.18003225
Rigid Body Updated Angular Momentum
    -4.181929888e-08
    -5.835521475e-05
    3.657969665e-08
Output rigid-body solution:
___________________________
Displacement
    -1.619758174e-05
    1.384786976e-09
    -5.319565686
Rotation correction
    -2.10891643e-08
    -2.933962442e-05
    1.842022939e-08
___________________________
Rigid-body displacement correction: (-1.619758174e-05 1.384786976e-09 -5.319565686)
Rigid-body rotation correction: (-2.10891643e-08 -2.933962442e-05 1.842022939e-08)
CTLNRB debug after Eigen solve: first DW = (6.157930819e-07 -8.053364742e-18 -3.294215345e-07), last DW = (3.172059837e-05 1.009214969e-13 -0.003735880633), first DTheta = (-8.286715548e-11 1.488112412e-05 -6.90979375e-16), last DTheta = (-8.393891024e-11 0.00757283392 2.417875284e-12)
CTLNRB debug after correction BCs: start DW = (0 0 0), end DW = (6.980449108e-09 -2.039662346e-13 -0.003903577514)
CTLNRB debug after updateSolutionVariables: first W = (9.395308288e-07 9.740098665e-16 -2.419765966e-07), last W = (3.445051656e-05 -1.319442635e-13 -0.009472200217), end patch W = (3.111671854e-08 -4.548576952e-13 -0.01000626793)
 Iteration       Residual Norm           Step Norm
         1          27.1207026       0.02539627037
Number of rows in the original matrix = 360
Number of rows in matrix = 366
Number of rows in matrix called by solver = 366
Rigid Body Previous Displacement
    3.111671854e-08
    -4.548576952e-13
    -0.01000626793
Rigid Body Previous Orientation
    1 -5.578904706e-12 -8.31582188e-09
    5.578904786e-12 1 9.653666679e-12
    8.31582188e-09 -9.653666726e-12 1
Rigid Body Previous Linear Velocity
    4.692372365e-07
    -2.10295625e-11
    -0.4390865884
Rigid Body Previous Angular Momentum
    -3.590297235e-10
    -3.240340965e-07
    2.607621234e-10
Rigid Body Previous Linear Acceleration
    -7.774315435e-05
    2.542699502e-10
    -9.743559204
Rigid Body Previous Torque
    -2.697395091e-08
    -2.776125489e-05
    2.369892234e-08
Rigid Body Updated Linear Acceleration
    1.095141156e-05
    5.370815636e-09
    -9.738332113
Rigid Body Updated Torque
    -5.594658741e-08
    -8.830110641e-05
    4.893894672e-08
Rigid Body Updated Velocity
    -3.292663416e-05
    2.791513231e-09
    -10.18003225
Rigid Body Updated Angular Momentum
    -4.181929888e-08
    -5.835521475e-05
    3.657969665e-08
Output rigid-body solution:
___________________________
Displacement
    -1.619758174e-05
    1.384786976e-09
    -5.319565686
Rotation correction
    -2.10891643e-08
    -2.933962442e-05
    1.842022939e-08
___________________________
Rigid-body displacement correction: (-1.619758174e-05 1.384786976e-09 -5.319565686)
Rigid-body rotation correction: (-2.10891643e-08 -2.933962442e-05 1.842022939e-08)
CTLNRB debug after Eigen solve: first DW = (-1.904633567e-07 4.548815973e-18 -2.286632031e-07), last DW = (-2.898270027e-05 -2.94692728e-13 -1.049272092e-05), first DTheta = (8.450119123e-11 1.032951352e-05 -1.01824054e-16), last DTheta = (8.557666506e-11 -0.0004721728247 -3.24030956e-12)
CTLNRB debug after correction BCs: start DW = (0 0 0), end DW = (0 0 0)
CTLNRB debug after updateSolutionVariables: first W = (7.490674722e-07 9.785586825e-16 -4.706397997e-07), last W = (5.467816293e-06 -4.266369915e-13 -0.009482692938), end patch W = (3.111671854e-08 -4.548576952e-13 -0.01000626793)
         2         5.323396895      0.005349263329
Number of rows in the original matrix = 360
Number of rows in matrix = 366
Number of rows in matrix called by solver = 366
Rigid Body Previous Displacement
    3.111671854e-08
    -4.548576952e-13
    -0.01000626793
Rigid Body Previous Orientation
    1 -5.578904706e-12 -8.31582188e-09
    5.578904786e-12 1 9.653666679e-12
    8.31582188e-09 -9.653666726e-12 1
Rigid Body Previous Linear Velocity
    4.692372365e-07
    -2.10295625e-11
    -0.4390865884
Rigid Body Previous Angular Momentum
    -3.590297235e-10
    -3.240340965e-07
    2.607621234e-10
Rigid Body Previous Linear Acceleration
    -7.774315435e-05
    2.542699502e-10
    -9.743559204
Rigid Body Previous Torque
    -2.697395091e-08
    -2.776125489e-05
    2.369892234e-08
Rigid Body Updated Linear Acceleration
    1.095141156e-05
    5.370815636e-09
    -9.738332113
Rigid Body Updated Torque
    -5.594658741e-08
    -8.830110641e-05
    4.893894672e-08
Rigid Body Updated Velocity
    -3.292663416e-05
    2.791513231e-09
    -10.18003225
Rigid Body Updated Angular Momentum
    -4.181929888e-08
    -5.835521475e-05
    3.657969665e-08
Output rigid-body solution:
___________________________
Displacement
    -1.619758174e-05
    1.384786976e-09
    -5.319565686
Rotation correction
    -2.10891643e-08
    -2.933962442e-05
    1.842022939e-08
___________________________
Rigid-body displacement correction: (-1.619758174e-05 1.384786976e-09 -5.319565686)
Rigid-body rotation correction: (-2.10891643e-08 -2.933962442e-05 1.842022939e-08)
CTLNRB debug after Eigen solve: first DW = (3.670129577e-09 6.038142565e-19 3.070317883e-09), last DW = (-2.365000723e-08 -1.716330004e-15 -9.614878629e-07), first DTheta = (-1.100461362e-12 -1.385197507e-07 -3.857548459e-16), last DTheta = (-1.108729119e-12 -4.283292268e-05 1.282793325e-13)
CTLNRB debug after correction BCs: start DW = (0 0 0), end DW = (0 0 0)
CTLNRB debug after updateSolutionVariables: first W = (7.527376017e-07 9.791624968e-16 -4.675694818e-07), last W = (5.444166286e-06 -4.283533215e-13 -0.009483654426), end patch W = (3.111671854e-08 -4.548576952e-13 -0.01000626793)
         3         5.319565691     0.0001508896604
Number of rows in the original matrix = 360
Number of rows in matrix = 366
Number of rows in matrix called by solver = 366
Rigid Body Previous Displacement
    3.111671854e-08
    -4.548576952e-13
    -0.01000626793
Rigid Body Previous Orientation
    1 -5.578904706e-12 -8.31582188e-09
    5.578904786e-12 1 9.653666679e-12
    8.31582188e-09 -9.653666726e-12 1
Rigid Body Previous Linear Velocity
    4.692372365e-07
    -2.10295625e-11
    -0.4390865884
Rigid Body Previous Angular Momentum
    -3.590297235e-10
    -3.240340965e-07
    2.607621234e-10
Rigid Body Previous Linear Acceleration
    -7.774315435e-05
    2.542699502e-10
    -9.743559204
Rigid Body Previous Torque
    -2.697395091e-08
    -2.776125489e-05
    2.369892234e-08
Rigid Body Updated Linear Acceleration
    1.095141156e-05
    5.370815636e-09
    -9.738332113
Rigid Body Updated Torque
    -5.594658741e-08
    -8.830110641e-05
    4.893894672e-08
Rigid Body Updated Velocity
    -3.292663416e-05
    2.791513231e-09
    -10.18003225
Rigid Body Updated Angular Momentum
    -4.181929888e-08
    -5.835521475e-05
    3.657969665e-08
Output rigid-body solution:
___________________________
Displacement
    -1.619758174e-05
    1.384786976e-09
    -5.319565686
Rotation correction
    -2.10891643e-08
    -2.933962442e-05
    1.842022939e-08
___________________________
Rigid-body displacement correction: (-1.619758174e-05 1.384786976e-09 -5.319565686)
[...]
CTLNRB debug after correction BCs: start DW = (0 0 0), end DW = (0 0 0)
CTLNRB debug after updateSolutionVariables: first W = (-1.773233424e-06 1.426123093e-13 -0.002410141278), last W = (-0.0001178140762 -3.679897602e-11 -0.2859649017), end patch W = (-0.0001158109215 -3.778845864e-11 -0.2883407259)
         4         7.497849358     8.485778831e-08
Number of rows in the original matrix = 360
Number of rows in matrix = 366
Number of rows in matrix called by solver = 366
Rigid Body Previous Displacement
    -0.0001158109215
    -3.778845864e-11
    -0.2883407259
Rigid Body Previous Orientation
    0.9999999994 -1.501239795e-08 -3.388122065e-05
    1.5011807e-08 1 -1.744217986e-08
    3.388122065e-05 1.744167123e-08 0.9999999994
Rigid Body Previous Linear Velocity
    -0.002739895028
    -1.067393167e-08
    -2.366267511
Rigid Body Previous Angular Momentum
    1.326216033e-07
    -0.0002281492809
    1.138812079e-07
Rigid Body Previous Linear Acceleration
    -0.05685034086
    -5.387430577e-07
    -9.683522184
Rigid Body Previous Torque
    1.977352559e-06
    -0.003538287901
    1.554706156e-06
Rigid Body Updated Linear Acceleration
    -0.0001427225534
    7.406101533e-08
    -9.689363228
Rigid Body Updated Torque
    2.328430193e-06
    -0.003450232708
    2.307110882e-06
Rigid Body Updated Velocity
    -0.03123642674
    -2.430149528e-07
    -12.05271022
Rigid Body Updated Angular Momentum
    2.285512979e-06
    -0.003722409585
    2.044789727e-06
Output rigid-body solution:
___________________________
Displacement
    -0.0171039718
    -1.268822307e-07
    -7.49782959
Rotation correction
    1.209067291e-06
    -0.001975279433
    1.079335467e-06
___________________________
Rigid-body displacement correction: (-0.0171039718 -1.268822307e-07 -7.49782959)
Rigid-body rotation correction: (1.209067291e-06 -0.001975279433 1.079335467e-06)
CTLNRB debug after Eigen solve: first DW = (-7.446196436e-19 -5.081115108e-25 -2.233876663e-21), last DW = (5.59943733e-17 1.583501773e-22 9.250714474e-18), first DTheta = (-3.623608442e-18 7.745538381e-18 3.94526904e-19), last DTheta = (-1.260305653e-17 1.070422715e-15 1.345845837e-18)
CTLNRB debug after correction BCs: start DW = (0 0 0), end DW = (0 0 0)
CTLNRB debug after updateSolutionVariables: first W = (-1.773233424e-06 1.426123093e-13 -0.002410141278), last W = (-0.0001178140762 -3.679897602e-11 -0.2859649017), end patch W = (-0.0001158109215 -3.778845864e-11 -0.2883407259)
         5         7.497849358     1.633936562e-15
         5: Converged - Step norm relative tolerance met.
finiteVolumeBeam debug post-evolve: right W = (-0.0001158109215 -3.778845864e-11 -0.2883407259), first internal W = (-1.773233424e-06 1.426123093e-13 -0.002410141278), last internal W = (-0.0001178140762 -3.679897602e-11 -0.2859649017)
finiteVolumeBeam debug Q: attachment Q = (0.8742877013 -4.651525181e-11 -0.09382258233), anchor Q = (-0.8738865203 -1.241979352e-11 0.0951488305)
attachment force = (0.8742877013 -4.651525181e-11 -0.09382258233)
GAMGPCG:  Solving for pcorr, Initial residual = 1, Final residual = 1.130167723e-06, No Iterations 5
GAMGPCG:  Solving for pcorr, Initial residual = 0.1539955347, Final residual = 5.521322063e-06, No Iterations 4
time step continuity errors : sum local = 1.364746385e-11, global = -4.450891286e-13, cumulative = 1.720966254e-09
Mesh Courant Number mean: 0.001620261966 max: 0.477915753
smoothSolver:  Solving for alpha.water, Initial residual = 0, Final residual = 0, No Iterations 0
Phase-1 volume fraction = 0  Min(alpha.water) = 0  Max(alpha.water) = 0
Applying the previous iteration compression flux
MULES: Correcting alpha.water
MULES: Correcting alpha.water
MULES: Correcting alpha.water
MULES: Correcting alpha.water
Phase-1 volume fraction = 0  Min(alpha.water) = 0  Max(alpha.water) = 0
smoothSolver:  Solving for alpha.water, Initial residual = 0, Final residual = 0, No Iterations 0
Phase-1 volume fraction = 0  Min(alpha.water) = 0  Max(alpha.water) = 0
Applying the previous iteration compression flux
MULES: Correcting alpha.water
MULES: Correcting alpha.water
MULES: Correcting alpha.water
MULES: Correcting alpha.water
Phase-1 volume fraction = 0  Min(alpha.water) = 0  Max(alpha.water) = 0
GAMG:  Solving for p_rgh, Initial residual = 0.005662775507, Final residual = 3.662975964e-05, No Iterations 3
GAMG:  Solving for p_rgh, Initial residual = 0.00119451969, Final residual = 1.091594292e-05, No Iterations 3
time step continuity errors : sum local = 8.698892699e-11, global = 1.02014639e-11, cumulative = 1.731167718e-09
GAMG:  Solving for p_rgh, Initial residual = 0.002625762975, Final residual = 1.28988582e-05, No Iterations 4
GAMG:  Solving for p_rgh, Initial residual = 0.0005020136416, Final residual = 3.523274126e-06, No Iterations 4
time step continuity errors : sum local = 2.840037708e-11, global = -8.558390774e-13, cumulative = 1.730311879e-09
GAMG:  Solving for p_rgh, Initial residual = 0.0003301861514, Final residual = 1.260258132e-06, No Iterations 4
GAMGPCG:  Solving for p_rgh, Initial residual = 7.40404625e-05, Final residual = 1.358304287e-09, No Iterations 4
time step continuity errors : sum local = 1.101966499e-14, global = -1.882865773e-16, cumulative = 1.730311691e-09
ExecutionTime = 342.95 s  ClockTime = 343 s

Courant Number mean: 0.002244247229 max: 0.3867322489
Interface Courant Number mean: 0 max: 0
deltaT = 0.0008465608466
Time = 0.25

PIMPLE: iteration 1
forces forces:
    rho: rho
    Not including porosity effects

finiteVolumeBeam debug pre-evolve: attachmentDisp = (-0.000118150922 -4.696274328e-11 -0.2903473852), right W = (-0.000118150922 -4.696274328e-11 -0.2903473852), first internal W = (-1.773233424e-06 1.426123093e-13 -0.002410141278), last internal W = (-0.0001178140762 -3.679897602e-11 -0.2859649017)
CTLNRB debug evolve entered, time = 0.25, start patch W = (0 0 0), end patch W = (-0.000118150922 -4.696274328e-11 -0.2903473852), first internal W = (-1.773233424e-06 1.426123093e-13 -0.002410141278), last internal W = (-0.0001178140762 -3.679897602e-11 -0.2859649017)
Number of rows in the original matrix = 360
Number of rows in matrix = 366
Number of rows in matrix called by solver = 366
Rigid Body Previous Displacement
    -0.000118150922
    -4.696274328e-11
    -0.2903473852
Rigid Body Previous Orientation
    0.9999999994 -1.525498729e-08 -3.436722626e-05
    1.525437815e-08 1 -1.772471786e-08
    3.436722626e-05 1.77241936e-08 0.9999999994
Rigid Body Previous Linear Velocity
    -0.002788356317
    -1.100031581e-08
    -2.374465114
Rigid Body Previous Angular Momentum
    1.343698547e-07
    -0.0002311260209
    1.153566003e-07
Rigid Body Previous Linear Acceleration
    -0.05763945509
    -2.323394707e-07
    -9.683315287
Rigid Body Previous Torque
    2.152891376e-06
    -0.003494260304
    1.930908519e-06
Rigid Body Updated Linear Acceleration
    -0.0001368284867
    -5.177191086e-07
    -9.689138372
Rigid Body Updated Torque
    1.740800263e-06
    -0.003427664964
    1.52335461e-06
Rigid Body Updated Velocity
    -0.0316764981
    -3.860296054e-07
    -12.06069194
Rigid Body Updated Angular Momentum
    2.081215674e-06
    -0.003692088655
    1.842488165e-06
Output rigid-body solution:
___________________________
Displacement
    -0.01735057813
    -1.985619234e-07
    -7.507925914
Rotation correction
    1.107792764e-06
    -0.001961607338
    9.789223826e-07
___________________________
Rigid-body displacement correction: (-0.01735057813 -1.985619234e-07 -7.507925914)
Rigid-body rotation correction: (1.107792764e-06 -0.001961607338 9.789223826e-07)
CTLNRB debug after Eigen solve: first DW = (8.940744429e-07 -6.805043878e-15 -9.626330451e-08), last DW = (-6.074494442e-05 -1.052716091e-11 -0.002282934878), first DTheta = (1.994154096e-12 -4.884518287e-08 -5.248003477e-13), last DTheta = (1.290341772e-11 -0.01276886374 5.982428019e-11)
CTLNRB debug after correction BCs: start DW = (0 0 0), end DW = (-2.340000569e-06 -9.174284647e-12 -0.002006659312)
CTLNRB debug after updateSolutionVariables: first W = (-8.791589809e-07 1.358072654e-13 -0.002410237542), last W = (-0.0001785590206 -4.732613693e-11 -0.2882478365), end patch W = (-0.000118150922 -4.696274328e-11 -0.2903473852)
 Iteration       Residual Norm           Step Norm
         1         15.59670997       0.02883891446
Number of rows in the original matrix = 360
Number of rows in matrix = 366
Number of rows in matrix called by solver = 366
Rigid Body Previous Displacement
    -0.000118150922
    -4.696274328e-11
    -0.2903473852
Rigid Body Previous Orientation
    0.9999999994 -1.525498729e-08 -3.436722626e-05
    1.525437815e-08 1 -1.772471786e-08
    3.436722626e-05 1.77241936e-08 0.9999999994
Rigid Body Previous Linear Velocity
    -0.002788356317
    -1.100031581e-08
    -2.374465114
Rigid Body Previous Angular Momentum
    1.343698547e-07
    -0.0002311260209
    1.153566003e-07
Rigid Body Previous Linear Acceleration
    -0.05763945509
    -2.323394707e-07
    -9.683315287
Rigid Body Previous Torque
    2.152891376e-06
    -0.003494260304
    1.930908519e-06
Rigid Body Updated Linear Acceleration
    -0.0001368284867
    -5.177191086e-07
    -9.689138372
Rigid Body Updated Torque
    1.740800263e-06
    -0.003427664964
    1.52335461e-06
Rigid Body Updated Velocity
    -0.0316764981
    -3.860296054e-07
    -12.06069194
Rigid Body Updated Angular Momentum
    2.081215674e-06
    -0.003692088655
    1.842488165e-06
Output rigid-body solution:
___________________________
Displacement
    -0.01735057813
    -1.985619234e-07
    -7.507925914
Rotation correction
    1.107792764e-06
    -0.001961607338
    9.789223826e-07
___________________________
Rigid-body displacement correction: (-0.01735057813 -1.985619234e-07 -7.507925914)
Rigid-body rotation correction: (1.107792764e-06 -0.001961607338 9.789223826e-07)
CTLNRB debug after Eigen solve: first DW = (-7.368503326e-08 -6.021264429e-14 -8.452204973e-06), last DW = (5.737089861e-05 1.440285165e-12 0.0003020224996), first DTheta = (-2.22767009e-12 0.0003777056532 -2.477714425e-12), last DTheta = (-1.327150905e-11 0.01389662534 -6.369187383e-11)
CTLNRB debug after correction BCs: start DW = (0 0 0), end DW = (0 0 0)
CTLNRB debug after updateSolutionVariables: first W = (-9.528440142e-07 7.559462115e-14 -0.002418689747), last W = (-0.000121188122 -4.588585176e-11 -0.287945814), end patch W = (-0.000118150922 -4.696274328e-11 -0.2903473852)
         2         7.510339235        0.0280553039
Number of rows in the original matrix = 360
Number of rows in matrix = 366
Number of rows in matrix called by solver = 366
Rigid Body Previous Displacement
    -0.000118150922
    -4.696274328e-11
    -0.2903473852
Rigid Body Previous Orientation
    0.9999999994 -1.525498729e-08 -3.436722626e-05
    1.525437815e-08 1 -1.772471786e-08
    3.436722626e-05 1.77241936e-08 0.9999999994
Rigid Body Previous Linear Velocity
    -0.002788356317
    -1.100031581e-08
    -2.374465114
Rigid Body Previous Angular Momentum
    1.343698547e-07
    -0.0002311260209
    1.153566003e-07
Rigid Body Previous Linear Acceleration
    -0.05763945509
    -2.323394707e-07
    -9.683315287
Rigid Body Previous Torque
    2.152891376e-06
    -0.003494260304
    1.930908519e-06
Rigid Body Updated Linear Acceleration
    -0.0001368284867
    -5.177191086e-07
    -9.689138372
Rigid Body Updated Torque
    1.740800263e-06
    -0.003427664964
    1.52335461e-06
Rigid Body Updated Velocity
    -0.0316764981
    -3.860296054e-07
    -12.06069194
Rigid Body Updated Angular Momentum
    2.081215674e-06
    -0.003692088655
    1.842488165e-06
Output rigid-body solution:
___________________________
Displacement
    -0.01735057813
    -1.985619234e-07
    -7.507925914
Rotation correction
    1.107792764e-06
    -0.001961607338
    9.789223826e-07
___________________________
Rigid-body displacement correction: (-0.01735057813 -1.985619234e-07 -7.507925914)
Rigid-body rotation correction: (1.107792764e-06 -0.001961607338 9.789223826e-07)
CTLNRB debug after Eigen solve: first DW = (5.263380325e-08 2.637764569e-19 -5.793064041e-09), last DW = (2.211556879e-06 9.369608267e-15 1.800114222e-06), first DTheta = (-8.526957656e-14 -1.241001768e-08 9.792932801e-15), last DTheta = (-9.902641274e-14 0.0001077111784 -4.45120019e-13)
CTLNRB debug after correction BCs: start DW = (0 0 0), end DW = (0 0 0)
CTLNRB debug after updateSolutionVariables: first W = (-9.002102109e-07 7.559488493e-14 -0.00241869554), last W = (-0.0001189765651 -4.587648215e-11 -0.2879440139), end patch W = (-0.000118150922 -4.696274328e-11 -0.2903473852)
         3         7.507983611     0.0001452160708
Number of rows in the original matrix = 360
Number of rows in matrix = 366
Number of rows in matrix called by solver = 366
Rigid Body Previous Displacement
    -0.000118150922
    -4.696274328e-11
    -0.2903473852
Rigid Body Previous Orientation
    0.9999999994 -1.525498729e-08 -3.436722626e-05
    1.525437815e-08 1 -1.772471786e-08
    3.436722626e-05 1.77241936e-08 0.9999999994
Rigid Body Previous Linear Velocity
    -0.002788356317
    -1.100031581e-08
    -2.374465114
Rigid Body Previous Angular Momentum
    1.343698547e-07
    -0.0002311260209
    1.153566003e-07
Rigid Body Previous Linear Acceleration
    -0.05763945509
    -2.323394707e-07
    -9.683315287
Rigid Body Previous Torque
    2.152891376e-06
    -0.003494260304
    1.930908519e-06
Rigid Body Updated Linear Acceleration
    -0.0001368284867
    -5.177191086e-07
    -9.689138372
Rigid Body Updated Torque
    1.740800263e-06
    -0.003427664964
    1.52335461e-06
Rigid Body Updated Velocity
    -0.0316764981
    -3.860296054e-07
    -12.06069194
Rigid Body Updated Angular Momentum
    2.081215674e-06
    -0.003692088655
    1.842488165e-06
Output rigid-body solution:
___________________________
Displacement
    -0.01735057813
    -1.985619234e-07
    -7.507925914
Rotation correction
    1.107792764e-06
    -0.001961607338
    9.789223826e-07
___________________________
Rigid-body displacement correction: (-0.01735057813 -1.985619234e-07 -7.507925914)
Rigid-body rotation correction: (1.107792764e-06 -0.001961607338 9.789223826e-07)
CTLNRB debug after Eigen solve: first DW = (1.238182442e-12 3.592835134e-21 -1.455912795e-13), last DW = (-9.070469527e-11 -2.453819534e-18 -1.628640674e-09), first DTheta = (4.614429438e-15 4.884575357e-13 -5.040201974e-16), last DTheta = (1.605017709e-14 -6.305999687e-08 -1.674052415e-15)
CTLNRB debug after correction BCs: start DW = (0 0 0), end DW = (0 0 0)
CTLNRB debug after updateSolutionVariables: first W = (-9.002089727e-07 7.559488852e-14 -0.00241869554), last W = (-0.0001189766559 -4.587648461e-11 -0.2879440156), end patch W = (-0.000118150922 -4.696274328e-11 -0.2903473852)
         4         7.507946218     8.598026202e-08
Number of rows in the original matrix = 360
Number of rows in matrix = 366
Number of rows in matrix called by solver = 366
Rigid Body Previous Displacement
    -0.000118150922
    -4.696274328e-11
    -0.2903473852
Rigid Body Previous Orientation
    0.9999999994 -1.525498729e-08 -3.436722626e-05
    1.525437815e-08 1 -1.772471786e-08
    3.436722626e-05 1.77241936e-08 0.9999999994
Rigid Body Previous Linear Velocity
    -0.002788356317
    -1.100031581e-08
    -2.374465114
Rigid Body Previous Angular Momentum
    1.343698547e-07
    -0.0002311260209
    1.153566003e-07
Rigid Body Previous Linear Acceleration
    -0.05763945509
    -2.323394707e-07
    -9.683315287
Rigid Body Previous Torque
    2.152891376e-06
    -0.003494260304
    1.930908519e-06
Rigid Body Updated Linear Acceleration
    -0.0001368284867
    -5.177191086e-07
    -9.689138372
Rigid Body Updated Torque
    1.740800263e-06
    -0.003427664964
    1.52335461e-06
Rigid Body Updated Velocity
    -0.0316764981
    -3.860296054e-07
    -12.06069194
Rigid Body Updated Angular Momentum
    2.081215674e-06
    -0.003692088655
    1.842488165e-06
Output rigid-body solution:
___________________________
Displacement
    -0.01735057813
    -1.985619234e-07
    -7.507925914
Rotation correction
    1.107792764e-06
    -0.001961607338
    9.789223826e-07
___________________________
Rigid-body displacement correction: (-0.01735057813 -1.985619234e-07 -7.507925914)
Rigid-body rotation correction: (1.107792764e-06 -0.001961607338 9.789223826e-07)
CTLNRB debug after Eigen solve: first DW = (-4.004337877e-19 -4.513487296e-25 -6.574047866e-20), last DW = (6.394459189e-17 1.743092368e-22 1.664342729e-17), first DTheta = (-3.710550699e-18 -2.476731871e-18 4.05414022e-19), last DTheta = (-1.290382564e-17 1.122306853e-15 1.393546895e-18)
CTLNRB debug after correction BCs: start DW = (0 0 0), end DW = (0 0 0)
CTLNRB debug after updateSolutionVariables: first W = (-9.002089727e-07 7.559488852e-14 -0.00241869554), last W = (-0.0001189766559 -4.587648461e-11 -0.2879440156), end patch W = (-0.000118150922 -4.696274328e-11 -0.2903473852)
         5         7.507946218     1.659713163e-15
         5: Converged - Step norm relative tolerance met.
finiteVolumeBeam debug post-evolve: right W = (-0.000118150922 -4.696274328e-11 -0.2903473852), first internal W = (-9.002089727e-07 7.559488852e-14 -0.00241869554), last internal W = (-0.0001189766559 -4.587648461e-11 -0.2879440156)
finiteVolumeBeam debug Q: attachment Q = (0.8862579056 -5.092235446e-11 -0.09621573476), anchor Q = (-0.8860080668 -9.813801799e-12 0.09680714332)
attachment force = (0.8862579056 -5.092235446e-11 -0.09621573476)
GAMGPCG:  Solving for pcorr, Initial residual = 1, Final residual = 3.057165508e-06, No Iterations 5
GAMGPCG:  Solving for pcorr, Initial residual = 0.160287021, Final residual = 2.61908305e-06, No Iterations 4
time step continuity errors : sum local = 6.608111166e-12, global = 1.768870184e-13, cumulative = 1.730488578e-09
Mesh Courant Number mean: 0.001625872096 max: 0.5150770559
smoothSolver:  Solving for alpha.water, Initial residual = 0, Final residual = 0, No Iterations 0
Phase-1 volume fraction = 0  Min(alpha.water) = 0  Max(alpha.water) = 0
Applying the previous iteration compression flux
MULES: Correcting alpha.water
MULES: Correcting alpha.water
MULES: Correcting alpha.water
MULES: Correcting alpha.water
Phase-1 volume fraction = 0  Min(alpha.water) = 0  Max(alpha.water) = 0
smoothSolver:  Solving for alpha.water, Initial residual = 0, Final residual = 0, No Iterations 0
Phase-1 volume fraction = 0  Min(alpha.water) = 0  Max(alpha.water) = 0
Applying the previous iteration compression flux
MULES: Correcting alpha.water
MULES: Correcting alpha.water
MULES: Correcting alpha.water
MULES: Correcting alpha.water
Phase-1 volume fraction = 0  Min(alpha.water) = 0  Max(alpha.water) = 0
GAMG:  Solving for p_rgh, Initial residual = 0.005509027096, Final residual = 4.50555133e-05, No Iterations 3
GAMG:  Solving for p_rgh, Initial residual = 0.001219245041, Final residual = 1.183221554e-05, No Iterations 3
time step continuity errors : sum local = 9.555271661e-11, global = -3.588267959e-12, cumulative = 1.72690031e-09
GAMG:  Solving for p_rgh, Initial residual = 0.002666104322, Final residual = 1.250518206e-05, No Iterations 4
GAMG:  Solving for p_rgh, Initial residual = 0.0005108070126, Final residual = 5.094151949e-06, No Iterations 4
time step continuity errors : sum local = 4.158021556e-11, global = -3.155279086e-13, cumulative = 1.726584782e-09
GAMG:  Solving for p_rgh, Initial residual = 0.0003341467265, Final residual = 1.548040714e-06, No Iterations 4
GAMGPCG:  Solving for p_rgh, Initial residual = 7.499085605e-05, Final residual = 2.984051622e-09, No Iterations 4
time step continuity errors : sum local = 2.451124247e-14, global = 5.11319301e-16, cumulative = 1.726585293e-09
ExecutionTime = 348.05 s  ClockTime = 348 s

End

